42
-60.34639619
C          1.22073       -0.06233        1.47515
C          2.03006       -0.54563        0.27038
C          1.37238       -0.16663       -1.06324
C         -0.27949       -0.30392        1.26031
C         -0.14113       -0.40679       -1.01038
C         -0.54944       -1.78148        0.94115
C         -0.43896       -1.85456       -0.59269
H          1.54898       -0.58946        2.37186
H          1.81232       -0.76661       -1.86097
H         -1.54275       -2.06908        1.28078
H          1.41974        0.99819        1.63355
H          2.15854       -1.63397        0.30857
H          1.58630        0.88054       -1.28503
H         -0.83155        0.04346        2.13760
H         -0.58882       -0.14528       -1.97250
H          0.16883       -2.42916        1.43890
H         -1.36662       -2.20428       -1.04222
H          0.35363       -2.52429       -0.91879
N         -0.76636        0.37234        0.05889
C         -2.81758        0.23072       -0.03945
H         -2.78717        0.69077        0.93092
H         -2.78533        0.81777       -0.93994
H         -2.79243       -0.83432       -0.13024
O          3.33205        0.04210        0.36376
C          4.32330       -0.59313       -0.28142
O          4.15117       -1.60223       -0.92253
C          5.63344        0.07520       -0.11250
C          5.78518        1.21477        0.67339
C          6.73782       -0.46879       -0.76502
C          7.03099        1.79975        0.80111
H          4.92804        1.63086        1.17928
C          7.97992        0.12136       -0.63332
H          6.59755       -1.35300       -1.36815
C          8.12705        1.25571        0.14960
H          7.15033        2.68292        1.41108
H          8.83484       -0.30115       -1.13948
H          9.09800        1.71710        0.25330
C         -0.57088        1.80842        0.00409
H         -0.95666        2.18171       -0.94342
H         -1.13273        2.27356        0.81307
H          0.47179        2.11846        0.09138
I         -5.40884        0.11565       -0.05587
