42
-60.34418678
C          1.22673       -0.09020        1.50668
C          2.03486       -0.56905        0.29875
C          1.37498       -0.18803       -1.03377
C         -0.27302       -0.33269        1.29329
C         -0.13844       -0.42470       -0.98073
C         -0.54004       -1.80909        0.96587
C         -0.44166       -1.87275       -0.56928
H          1.55670       -0.62070        2.40074
H          1.81228       -0.78917       -1.83210
H         -1.52814       -2.10542        1.31299
H          1.42590        0.96959        1.66924
H          2.16562       -1.65727        0.33364
H          1.59251        0.85815       -1.25662
H         -0.82729        0.01035        2.17050
H         -0.58701       -0.15676       -1.94038
H          0.18573       -2.45626        1.45330
H         -1.37517       -2.21276       -1.01377
H          0.34429       -2.54523       -0.90558
N         -0.75587        0.35319        0.09478
C         -2.76136        0.21780       -0.00954
H         -2.84089        0.73870        0.92367
H         -2.77799        0.75526       -0.93850
H         -2.78514       -0.85165       -0.02055
O          3.33498        0.02153        0.39125
C          4.32597       -0.60785       -0.26178
O          4.15247       -1.61380       -0.90719
C          5.63415        0.06401       -0.09612
C          5.78666        1.19728        0.69884
C          6.73598       -0.46902       -0.76200
C          7.03059        1.78712        0.82193
H          4.93168        1.60460        1.21538
C          7.97617        0.12611       -0.63491
H          6.59529       -1.34851       -1.37188
C          8.12398        1.25432        0.15674
H          7.15051        2.66534        1.43884
H          8.82903       -0.28758       -1.15166
H          9.09339        1.71971        0.25658
C         -0.55694        1.78952        0.04815
H          0.48907        2.09181        0.11273
H         -0.96486        2.17292       -0.88579
H         -1.09652        2.24886        0.87505
I         -5.41989        0.14849       -0.10451
