42
-60.34239226
C          1.36214       -0.72983        1.25149
C          2.03491       -1.23509       -0.03207
C          1.35249       -0.70615       -1.30104
C         -0.16598       -0.77059        1.12033
C         -0.17416       -0.75761       -1.15575
C         -0.64730       -2.17986        0.74638
C         -0.63557       -2.17750       -0.79284
H          1.67321       -1.35438        2.09105
H          1.66012       -1.31243       -2.15511
H         -1.64859       -2.35541        1.13543
H          1.68788        0.28771        1.46289
H          2.00832       -2.33020       -0.04146
H          1.67209        0.31702       -1.49344
H         -0.61644       -0.40789        2.04785
H         -0.64072       -0.38527       -2.07114
H          0.00573       -2.94277        1.16508
H         -1.62466       -2.37955       -1.20028
H          0.04063       -2.92503       -1.20264
N         -0.62422        0.03518       -0.01111
C         -2.64876        0.15470        0.01109
H         -2.61373        0.88608       -0.76059
H         -2.76532       -0.90634       -0.14923
H         -2.47082        0.63100        0.94750
O          3.44529       -0.97027       -0.03499
C          3.89692        0.28853       -0.02400
O          3.18539        1.26861       -0.00982
C          5.37631        0.35365       -0.03084
C          5.97907        1.60987       -0.01061
C          6.16591       -0.79347       -0.05710
C          7.35623        1.71741       -0.01619
H          5.34899        2.48625        0.00942
C          7.54315       -0.67812       -0.06282
H          5.69506       -1.76376       -0.07300
C          8.13879        0.57366       -0.04232
H          7.82165        2.69140       -0.00026
H          8.15662       -1.56654       -0.08336
H          9.21548        0.65723       -0.04681
C         -0.22089        1.43241       -0.00816
H         -0.61374        1.91249       -0.90335
H         -0.65016        1.92249        0.86496
H          0.85791        1.58569        0.01311
I         -5.25473        0.38503        0.04868
