42
-60.34295306
C          1.29276       -0.72315        1.20527
C          2.04203       -0.54668       -0.11716
C          1.32087        0.41330       -1.07365
C         -0.21662       -0.86148        0.96869
C         -0.18821        0.14454       -1.07711
C         -0.50930       -2.00717       -0.01070
C         -0.46533       -1.33295       -1.39422
H          1.66167       -1.61213        1.71838
H          1.71978        0.27930       -2.08007
H         -1.48875       -2.43817        0.18886
H          1.50458        0.13089        1.84949
H          2.17182       -1.51544       -0.61435
H          1.52752        1.44247       -0.77471
H         -0.72406       -0.98899        1.92826
H         -0.68445        0.82632       -1.77194
H          0.22583       -2.80312        0.08474
H         -1.40910       -1.44839       -1.92462
H          0.31495       -1.74543       -2.02996
N         -0.75223        0.30386        0.26501
C         -2.75596        0.19715        0.21628
H         -2.70174       -0.64981       -0.42856
H         -2.75122        0.05168        1.27785
H         -2.93816        1.17125       -0.20626
O          3.34660       -0.04708        0.19269
C          4.30578       -0.27177       -0.72071
O          4.09983       -0.84976       -1.76093
C          5.62333        0.25952       -0.30610
C          6.69320        0.12626       -1.18883
C          5.81574        0.87641        0.92757
C          7.94123        0.60598       -0.84145
H          6.52193       -0.35638       -2.13908
C          7.06731        1.35353        1.26873
H          4.98555        0.97439        1.60941
C          8.12879        1.21985        0.38712
H          8.76933        0.50227       -1.52631
H          7.21820        1.83113        2.22547
H          9.10440        1.59462        0.65927
C         -0.54742        1.59326        0.89925
H          0.50039        1.83581        1.08135
H         -0.97104        2.36865        0.26313
H         -1.07185        1.60393        1.85362
I         -5.41680       -0.02790        0.23970
