42
-60.34628820
C          1.38025       -0.18401        0.98789
C          2.03230       -0.54832       -0.35269
C          1.21747       -0.05319       -1.54915
C         -0.13361       -0.42280        0.94054
C         -0.28068       -0.30443       -1.32978
C         -0.43665       -1.86682        0.51487
C         -0.53800       -1.78656       -1.01937
H          1.82356       -0.79287        1.77701
H          1.54492       -0.56810       -2.45321
H         -1.36965       -2.21079        0.95759
H          1.59620        0.86039        1.22063
H          2.16155       -1.63610       -0.40252
H          1.41087        1.01013       -1.69495
H         -0.57575       -0.16739        1.90674
H         -0.84178        0.04670       -2.19957
H          0.35001       -2.54274        0.84252
H         -1.52439       -2.08614       -1.36904
H          0.19125       -2.42342       -1.51523
N         -0.76157        0.36317       -0.12138
C         -2.81281        0.21838        0.00617
H         -2.75166        0.70346        0.96035
H         -2.89546        0.80164       -0.89133
H         -2.78146       -0.85047       -0.05498
O          3.33338        0.04132       -0.44400
C          4.32943       -0.60620        0.18169
O          4.16203       -1.62821        0.80322
C          5.63779        0.06673        0.01808
C          5.78226        1.22555       -0.74060
C          6.74783       -0.49210        0.64811
C          7.02644        1.81498       -0.86352
H          4.92073        1.65308       -1.22918
C          7.98831        0.10247        0.52115
H          6.61319       -1.39107        1.23034
C          8.12812        1.25618       -0.23435
H          7.14006        2.71320       -1.45221
H          8.84761       -0.33146        1.00992
H          9.09774        1.72123       -0.33405
C         -0.57137        1.79951       -0.05982
H         -0.99070        2.17204        0.87363
H          0.47311        2.11162       -0.11167
H         -1.10598        2.26264       -0.88791
I         -5.41590        0.13084        0.21903
