42
-60.34499300
C          1.37213       -0.72482        1.26209
C          2.04311       -1.24032       -0.01880
C          1.35876       -0.72195       -1.29148
C         -0.15577       -0.77024        1.13292
C         -0.16764       -0.76999       -1.14537
C         -0.63143       -2.18373        0.76601
C         -0.63454       -2.18539       -0.77341
H          1.68622       -1.34141        2.10634
H          1.66463       -1.33605       -2.14055
H         -1.62682       -2.36918        1.16562
H          1.69609        0.29526        1.46361
H          2.01715       -2.33549       -0.01974
H          1.67945        0.29903       -1.49354
H         -0.60898       -0.40161        2.05638
H         -0.63307       -0.40153       -2.06277
H          0.03194       -2.94043        1.17974
H         -1.62982       -2.37952       -1.16933
H          0.03187       -2.93900       -1.18795
N         -0.60850        0.03091       -0.00368
C         -2.60903        0.16973        0.01305
H         -2.72567       -0.89189       -0.03374
H         -2.60007        0.67303        0.96164
H         -2.65270        0.74426       -0.89142
O          3.45283       -0.97444       -0.02541
C          3.90305        0.28539       -0.02488
O          3.18919        1.26390       -0.02074
C          5.38194        0.35277       -0.02886
C          6.17343       -0.79339       -0.03966
C          5.98267        1.61018       -0.02080
C          7.55047       -0.67587       -0.04217
H          5.70420       -1.76455       -0.04610
C          7.35966        1.71980       -0.02314
H          5.35121        2.48576       -0.01259
C          8.14406        0.57704       -0.03378
H          8.16540       -1.56346       -0.05060
H          7.82352        2.69463       -0.01663
H          9.22062        0.66227       -0.03554
C         -0.21101        1.42975       -0.00657
H         -0.62594        1.90922       -0.89157
H         -0.62736        1.91399        0.87520
H          0.86761        1.58629       -0.00621
I         -5.27185        0.38998        0.03422
