42
-60.34431264
C          1.29118       -0.69935        1.20074
C          2.04609       -0.55113       -0.12172
C          1.33001        0.38878       -1.10135
C         -0.21784       -0.83983        0.96065
C         -0.17942        0.12014       -1.10546
C         -0.50977       -2.00668        0.00639
C         -0.45401       -1.36437       -1.39181
H          1.65669       -1.57791        1.73388
H          1.73387        0.23461       -2.10294
H         -1.49333       -2.42662        0.20962
H          1.50087        0.16788        1.82786
H          2.17802       -1.53046       -0.59705
H          1.53457        1.42381       -0.82173
H         -0.72847       -0.94540        1.92132
H         -0.67184        0.78655       -1.81800
H          0.22033       -2.80423        0.12448
H         -1.39291       -1.49306       -1.92817
H          0.33189       -1.79099       -2.01110
N         -0.75162        0.30807        0.22877
C         -2.79295        0.19854        0.17946
H         -2.68572       -0.62901       -0.48686
H         -2.75552        0.05085        1.24207
H         -2.92308        1.18071       -0.24166
O          3.34951       -0.04355        0.18110
C          4.31797       -0.30874       -0.71069
O          4.12492       -0.93535       -1.72499
C          5.63032        0.24470       -0.30762
C          6.71898        0.03671       -1.15203
C          5.79867        0.95748        0.87685
C          7.96200        0.53645       -0.81500
H          6.56606       -0.51911       -2.06468
C          7.04502        1.45527        1.20739
H          4.95364        1.11436        1.52878
C          8.12547        1.24625        0.36433
H          8.80485        0.37411       -1.46985
H          7.17689        2.00834        2.12553
H          9.09694        1.63753        0.62795
C         -0.55071        1.61056        0.83587
H          0.49537        1.85611        1.02647
H         -0.96378        2.37276        0.17715
H         -1.08729        1.64366        1.78303
I         -5.42210       -0.01659        0.26480
