42
-60.34613460
C          1.23036       -0.08162        1.49428
C          2.03456       -0.55150        0.28059
C          1.37071       -0.15912       -1.04614
C         -0.26928       -0.32980        1.28273
C         -0.14297       -0.39761       -0.99085
C         -0.52743       -1.80509        0.94167
C         -0.44500       -1.85013       -0.59509
H          1.56629       -0.61476        2.38455
H          1.80647       -0.75159       -1.85181
H         -1.50850       -2.11550        1.29662
H          1.42426        0.97863        1.66024
H          2.16423       -1.64003        0.30646
H          1.58548        0.88977       -1.25902
H         -0.82327        0.00115        2.16489
H         -0.59238       -0.12031       -1.94770
H          0.20943       -2.45121        1.41370
H         -1.38511       -2.17978       -1.03355
H          0.33508       -2.52087       -0.94809
N         -0.76178        0.36419        0.09385
C         -2.81111        0.21929       -0.01279
H         -2.87995        0.79385        0.88901
H         -2.74082        0.70204       -0.97118
H         -2.79927       -0.84858        0.05381
O          3.33630        0.03654        0.37183
C          4.32980       -0.60517       -0.26387
O          4.16021       -1.62197       -0.89327
C          5.63855        0.06687       -0.09965
C          5.77942        1.23755        0.64130
C          6.75242       -0.50423       -0.71165
C          7.02379        1.82643        0.76474
H          4.91477        1.67520        1.11517
C          7.99327        0.08932       -0.58345
H          6.62052       -1.41202       -1.28066
C          8.12946        1.25488        0.15431
H          7.13440        2.73429        1.33905
H          8.85569       -0.35459       -1.05754
H          9.09928        1.71936        0.25460
C         -0.57264        1.80163        0.06281
H         -1.00664        2.19614       -0.85482
H         -1.09395        2.24516        0.90988
H          0.47258        2.11250        0.10541
I         -5.41780        0.13140       -0.09081
