42
tsb_conformer15.log	Energy: -706579.0445708
C         -0.98449        0.65909        1.28913
C         -1.66038        1.15171       -0.00000
C         -0.98450        0.65914       -1.28916
C          0.54343        0.71888        1.15447
C          0.54342        0.71892       -1.15452
C          1.03607        2.12732        0.77403
C          1.03608        2.12735       -0.77404
H         -1.29949        1.29377        2.13088
H         -1.29952        1.29386       -2.13088
H          2.04196        2.30953        1.17429
H         -1.30207       -0.36421        1.52309
H         -1.61522        2.25015        0.00002
H         -1.30209       -0.36415       -1.52316
H          1.01689        0.33708        2.07126
H          1.01686        0.33715       -2.07133
H          0.38276        2.90145        1.19988
H          2.04199        2.30953       -1.17427
H          0.38280        2.90150       -1.19987
N          0.99009       -0.09458       -0.00004
C          2.95213       -0.21893       -0.00001
H          2.98904       -0.76440        0.93823
H          2.98906       -0.76435       -0.93829
H          3.16299        0.84232        0.00003
O         -3.07074        0.91345        0.00000
C         -3.55788       -0.33219       -0.00002
O         -2.87083       -1.32679       -0.00005
C         -5.04844       -0.35634        0.00000
C         -5.81243        0.81636        0.00003
C         -5.68192       -1.60400       -0.00001
C         -7.20226        0.73689        0.00005
H         -5.31132        1.78471        0.00004
C         -7.07112       -1.67879        0.00001
H         -5.06660       -2.50539       -0.00003
C         -7.83121       -0.50853        0.00004
H         -7.79902        1.65116        0.00008
H         -7.56448       -2.65270        0.00001
H         -8.92187       -0.56741        0.00006
C          0.57683       -1.49717       -0.00007
H          0.99466       -1.98863        0.88969
H         -0.51377       -1.63268       -0.00009
H          0.99469       -1.98860       -0.88984
I          5.65026       -0.44847        0.00002
