42
tsb_conformer20.log	Energy: -706579.0449034
C         -0.98450        0.65917        1.28916
C         -1.66039        1.15172       -0.00001
C         -0.98449        0.65911       -1.28914
C          0.54342        0.71897        1.15450
C          0.54343        0.71891       -1.15448
C          1.03604        2.12741        0.77401
C          1.03606        2.12736       -0.77406
H         -1.29952        1.29390        2.13087
H         -1.29951        1.29379       -2.13089
H          2.04193        2.30965        1.17426
H         -1.30208       -0.36412        1.52317
H         -1.61525        2.25016       -0.00003
H         -1.30206       -0.36420       -1.52309
H          1.01687        0.33722        2.07131
H          1.01688        0.33711       -2.07127
H          0.38272        2.90155        1.19981
H          2.04197        2.30955       -1.17430
H          0.38278        2.90149       -1.19994
N          0.99010       -0.09453        0.00003
C          2.95213       -0.21890        0.00003
H          2.98902       -0.76440       -0.93820
H          3.16303        0.84234       -0.00003
H          2.98907       -0.76429        0.93831
O         -3.07075        0.91344       -0.00001
C         -3.55788       -0.33220        0.00002
O         -2.87081       -1.32680        0.00004
C         -5.04843       -0.35636        0.00000
C         -5.81243        0.81633       -0.00000
C         -5.68191       -1.60402       -0.00001
C         -7.20226        0.73685       -0.00002
H         -5.31133        1.78468        0.00001
C         -7.07111       -1.67882       -0.00003
H         -5.06659       -2.50541       -0.00001
C         -7.83120       -0.50857       -0.00003
H         -7.79902        1.65113       -0.00002
H         -7.56447       -2.65273       -0.00004
H         -8.92186       -0.56745       -0.00004
C          0.57683       -1.49712        0.00007
H          0.99469       -1.98860       -0.88968
H          0.99467       -1.98855        0.88985
H         -0.51377       -1.63262        0.00005
I          5.65026       -0.44850       -0.00001
