42
-60.34390255
C          1.39017       -0.17247        1.04701
C          2.03387       -0.52974       -0.29976
C          1.21207       -0.02719       -1.48829
C         -0.12295       -0.41583        1.00540
C         -0.28627       -0.26975       -1.26337
C         -0.41800       -1.85689        0.56132
C         -0.56044       -1.75112       -0.96804
H          1.83988       -0.78408        1.83038
H          1.53043       -0.54076       -2.39633
H         -1.33127       -2.22978        1.02206
H          1.60454        0.87143        1.28293
H          2.16228       -1.61722       -0.35758
H          1.41104        1.03535       -1.63275
H         -0.56408       -0.17286        1.97517
H         -0.84631        0.09671       -2.12744
H          0.38773       -2.52557        0.85603
H         -1.56427       -2.02178       -1.29020
H          0.14090       -2.39461       -1.49444
N         -0.75425        0.38598       -0.04357
C         -2.78474        0.24805        0.05875
H         -2.84945        0.63475       -0.94138
H         -2.71304       -0.79691        0.27829
H         -2.91174        0.92184        0.87937
O          3.33437        0.05983       -0.39572
C          4.33495       -0.59499        0.21581
O          4.17049       -1.62251        0.82889
C          5.64271        0.07751        0.04796
C          5.78134        1.24813       -0.69353
C          6.75850       -0.49379        0.65632
C          7.02539        1.83684       -0.82090
H          4.91537        1.68556       -1.16515
C          7.99887        0.09997        0.52472
H          6.62838       -1.40180        1.22536
C          8.13282        1.26549       -0.21348
H          7.13442        2.74436       -1.39598
H          8.86266       -0.34383        0.99636
H          9.10232        1.72999       -0.31667
C         -0.56116        1.82137        0.03653
H          0.47861        2.13566       -0.06847
H         -1.14361        2.29931       -0.74987
H         -0.92691        2.17184        1.00029
I         -5.42558        0.09656        0.12159
