42
-60.34556903
C          1.38827       -0.17968        1.02412
C          2.03160       -0.53207       -0.32404
C          1.21063       -0.02425       -1.51099
C         -0.12576       -0.41752        0.98198
C         -0.28781       -0.26729       -1.28583
C         -0.42809       -1.85629        0.53663
C         -0.55758       -1.75050       -0.99393
H          1.83590       -0.79649        1.80457
H          1.52874       -0.53462       -2.42093
H         -1.34889       -2.21850        0.99061
H          1.60604        0.86236        1.26530
H          2.15894       -1.61949       -0.38546
H          1.41022        1.03871       -1.65119
H         -0.56474       -0.17533        1.95296
H         -0.84929        0.09989       -2.14874
H          0.36955       -2.53156        0.83816
H         -1.55564       -2.02897       -1.32740
H          0.15291       -2.38917       -1.51400
N         -0.75683        0.38649       -0.06516
C         -2.79857        0.25294        0.05257
H         -2.85171        0.71898       -0.91324
H         -2.73760       -0.81041        0.14033
H         -2.82433        0.85038        0.94415
O          3.33285        0.05666       -0.41868
C          4.32938       -0.59087        0.20646
O          4.16145       -1.61115        0.83066
C          5.63823        0.07999        0.03923
C          5.78635        1.22676       -0.73687
C          6.74522       -0.46885        0.68327
C          7.03115        1.81417       -0.86312
H          4.92728        1.64629       -1.23661
C          7.98621        0.12400        0.55334
H          6.60781       -1.35872        1.27868
C          8.12970        1.26562       -0.21963
H          7.14772        2.70280       -1.46563
H          8.84308       -0.30199        1.05324
H          9.09978        1.72912       -0.32191
C         -0.55797        1.82098        0.01659
H         -1.12811        2.30202       -0.77695
H         -0.93329        2.17486        0.97553
H          0.48435        2.13081       -0.07570
I         -5.41890        0.09443        0.15320
