42
-60.34405645
C          1.29641       -0.77222        1.25877
C          2.03442       -0.57848       -0.06782
C          1.30329        0.38803       -1.01015
C         -0.21394       -0.91297        1.02829
C         -0.20652        0.12329       -1.00125
C         -0.49986       -2.04745        0.03273
C         -0.49268       -1.34750       -1.33874
H          1.67240       -1.66574        1.75873
H          1.69115        0.25994       -2.02169
H         -1.46379       -2.50928        0.24033
H          1.50936        0.07534        1.91096
H          2.16450       -1.54136       -0.57629
H          1.51547        1.41511       -0.70787
H         -0.71955       -1.05687        1.98646
H         -0.70463        0.81661       -1.68357
H          0.25543       -2.82725        0.10139
H         -1.45156       -1.44983       -1.84430
H          0.26958       -1.74862       -2.00294
N         -0.76027        0.26187        0.34736
C         -2.77670        0.17424        0.29577
H         -2.76356        1.05282       -0.31722
H         -2.66192       -0.76492       -0.19371
H         -2.84959        0.24492        1.37166
O          3.33932       -0.07610        0.23679
C          4.29418       -0.29233       -0.68274
O          4.08594       -0.86720       -1.72426
C          5.61152        0.24350       -0.27262
C          6.68113        0.10554       -1.15489
C          5.80355        0.86984        0.95632
C          7.92867        0.58942       -0.81147
H          6.51006       -0.38404       -2.10162
C          7.05450        1.35148        1.29338
H          4.97340        0.97194        1.63761
C          8.11587        1.21261        0.41245
H          8.75666        0.48182       -1.49588
H          7.20495        1.83671        2.24635
H          9.09105        1.59078        0.68144
C         -0.53904        1.53870        1.00233
H          0.51297        1.79529        1.13380
H         -1.00893        2.32416        0.41234
H         -1.00918        1.51643        1.98428
I         -5.39879        0.02546        0.13482
