42
tsb_conformer5.log	Energy: -706579.0446085
C         -0.98460        0.65945        1.28922
C         -1.66041        1.15175       -0.00008
C         -0.98443        0.65889       -1.28908
C          0.54333        0.71923        1.15465
C          0.54348        0.71876       -1.15433
C          1.03597        2.12760        0.77394
C          1.03604        2.12730       -0.77414
H         -1.29968        1.29433        2.13079
H         -1.29941        1.29338       -2.13097
H          2.04186        2.30988        1.17416
H         -1.30218       -0.36381        1.52340
H         -1.61528        2.25018       -0.00032
H         -1.30195       -0.36448       -1.52282
H          1.01671        0.33764        2.07157
H          1.01700        0.33681       -2.07102
H          0.38267        2.90183        1.19961
H          2.04195        2.30949       -1.17438
H          0.38272        2.90132       -1.20015
N          0.99010       -0.09446        0.00036
C          2.95215       -0.21887        0.00023
H          2.98891       -0.76458       -0.93788
H          3.16307        0.84237       -0.00005
H          2.98924       -0.76405        0.93863
O         -3.07077        0.91345       -0.00012
C         -3.55788       -0.33220        0.00008
O         -2.87081       -1.32679        0.00031
C         -5.04844       -0.35638       -0.00003
C         -5.81246        0.81629       -0.00015
C         -5.68189       -1.60405       -0.00002
C         -7.20228        0.73679       -0.00024
H         -5.31137        1.78466       -0.00015
C         -7.07109       -1.67888       -0.00013
H         -5.06655       -2.50543        0.00007
C         -7.83120       -0.50864       -0.00024
H         -7.79906        1.65105       -0.00033
H         -7.56443       -2.65280       -0.00013
H         -8.92186       -0.56754       -0.00032
C          0.57686       -1.49707        0.00062
H          0.99470       -1.98867       -0.88906
H          0.99471       -1.98835        0.89047
H         -0.51374       -1.63258        0.00063
I          5.65028       -0.44854       -0.00014
