42
tsb_conformer9.log	Energy: -706579.0453803
C         -0.98450        0.65908        1.28916
C         -1.66037        1.15171        0.00002
C         -0.98448        0.65913       -1.28913
C          0.54342        0.71883        1.15451
C          0.54344        0.71890       -1.15446
C          1.03608        2.12728        0.77411
C          1.03608        2.12733       -0.77396
H         -1.29950        1.29378        2.13089
H         -1.29947        1.29386       -2.13085
H          2.04199        2.30947        1.17435
H         -1.30211       -0.36422        1.52313
H         -1.61520        2.25014        0.00004
H         -1.30207       -0.36416       -1.52313
H          1.01685        0.33700        2.07130
H          1.01690        0.33713       -2.07126
H          0.38279        2.90141        1.19998
H          2.04198        2.30956       -1.17420
H          0.38278        2.90148       -1.19977
N          0.99008       -0.09460        0.00001
C          2.95211       -0.21894        0.00009
H          2.98901       -0.76461        0.93822
H          2.98910       -0.76416       -0.93829
H          3.16296        0.84231        0.00041
O         -3.07073        0.91345        0.00000
C         -3.55787       -0.33219       -0.00003
O         -2.87082       -1.32680       -0.00005
C         -5.04843       -0.35634       -0.00002
C         -5.81241        0.81637       -0.00010
C         -5.68192       -1.60398        0.00006
C         -7.20224        0.73691       -0.00009
H         -5.31130        1.78472       -0.00017
C         -7.07112       -1.67876        0.00008
H         -5.06661       -2.50538        0.00012
C         -7.83120       -0.50850        0.00000
H         -7.79899        1.65119       -0.00015
H         -7.56449       -2.65267        0.00015
H         -8.92186       -0.56737        0.00001
C          0.57681       -1.49720       -0.00006
H          0.99460       -1.98868        0.88971
H         -0.51380       -1.63268       -0.00012
H          0.99470       -1.98861       -0.88982
I          5.65025       -0.44846       -0.00003
