42
-60.34567820
C          1.32309        0.36342        1.00241
C          2.04665       -0.59077        0.04251
C          1.29593       -0.76850       -1.27887
C         -0.18661        0.09520        1.00665
C         -0.21092       -0.92226       -1.03140
C         -0.46966       -1.37807        1.33418
C         -0.47555       -2.06803       -0.04236
H          1.72229        0.22706        2.00842
H          1.67249       -1.65099       -1.79765
H         -1.43035       -1.48246        1.83559
H          1.52827        1.39408        0.70717
H          2.18218       -1.55950        0.53819
H          1.49413        0.09183       -1.91891
H         -0.67769        0.78209        1.70052
H         -0.72801       -1.06040       -1.98436
H          0.29186       -1.78351        1.99657
H         -1.43369       -2.54311       -0.24716
H          0.28997       -2.83687       -0.12126
N         -0.75632        0.24120       -0.33301
C         -2.81086        0.14122       -0.24635
H         -2.69321       -0.85161        0.13493
H         -2.76944        0.97288        0.42956
H         -2.90615        0.31162       -1.30517
O          3.34877       -0.08330       -0.26701
C          4.31400       -0.31906        0.63609
O          4.11884       -0.91611        1.66770
C          5.62681        0.22553        0.22202
C          6.70743        0.06522        1.08686
C          5.80379        0.88174       -0.99346
C          7.95102        0.55645        0.73957
H          6.54788       -0.44736        2.02338
C          7.05083        1.37074       -1.33447
H          4.96505        1.00125       -1.66127
C          8.12322        1.20953       -0.47088
H          8.78756        0.43139        1.41050
H          7.18961        1.87931       -2.27701
H          9.09527        1.59357       -0.74288
C         -0.56145        1.52556       -0.97912
H          0.48541        1.80749       -1.10426
H         -1.02580        1.49822       -1.96369
H         -1.05222        2.29633       -0.38664
I         -5.41747        0.06210       -0.08917
