42
-60.34001069
C          1.36830       -0.76557        1.29586
C          2.03362       -1.25309        0.00166
C          1.33933       -0.71110       -1.25496
C         -0.16008       -0.82226        1.17037
C         -0.18660       -0.76302       -1.10351
C         -0.61340       -2.23567        0.76968
C         -0.65636       -2.18636       -0.76860
H          1.69150       -1.39517        2.12705
H          1.64009       -1.30758       -2.11842
H         -1.59098       -2.46788        1.19054
H          1.68506        0.25331        1.51358
H          2.01056       -2.34810       -0.02252
H          1.65713        0.31414       -1.43919
H         -0.61614       -0.48226        2.10357
H         -0.64768       -0.37454       -2.01574
H          0.08060       -2.98754        1.13991
H         -1.66525       -2.35353       -1.14299
H         -0.00964       -2.93215       -1.22610
N         -0.63433        0.00467        0.05876
C         -2.66063        0.16327        0.06119
H         -2.43619        0.48339       -0.92988
H         -2.58713       -0.88825        0.25053
H         -2.75874        0.90911        0.83107
O          3.44323       -0.98458       -0.00842
C          3.89251        0.27495        0.00966
O          3.17965        1.25371        0.03305
C          5.37192        0.34243       -0.00359
C          5.97234        1.59976       -0.02257
C          6.16363       -0.80347        0.00378
C          7.34928        1.70960       -0.03522
H          5.34058        2.47516       -0.02758
C          7.54066       -0.68584       -0.00785
H          5.69463       -1.77466        0.01948
C          8.13396        0.56704       -0.02769
H          7.81288        2.68447       -0.05077
H          8.15578       -1.57335       -0.00136
H          9.21049        0.65239       -0.03709
C         -0.22859        1.40217        0.09744
H         -0.68127        1.92203       -0.74575
H         -0.60496        1.84483        1.01810
H          0.84890        1.56129        0.05771
I         -5.24782        0.42179       -0.03109
