42
-60.34604882
C          1.37125       -0.74343        1.24879
C          2.04486       -1.25126       -0.03342
C          1.36211       -0.72693       -1.30422
C         -0.15690       -0.78743        1.11675
C         -0.16467       -0.78128       -1.16007
C         -0.63449       -2.19927        0.74667
C         -0.62398       -2.20090       -0.79275
H          1.68391       -1.36437        2.09039
H          1.67225       -1.33403       -2.15681
H         -1.63499       -2.37803        1.13668
H          1.69411        0.27581        1.45625
H          2.02026       -2.34646       -0.03983
H          1.67878        0.29693       -1.49787
H         -0.60959       -0.42111        2.04152
H         -0.63071       -0.41248       -2.07720
H          0.02129       -2.95912        1.16663
H         -1.61347       -2.40569       -1.19836
H          0.05277       -2.94868       -1.20119
N         -0.61163        0.01423       -0.01776
C         -2.64763        0.15689        0.00598
H         -2.70536       -0.90240       -0.13807
H         -2.60693        0.59011        0.98833
H         -2.65678        0.79635       -0.85264
O          3.45481       -0.98403       -0.03687
C          3.90412        0.27573       -0.02806
O          3.19074        1.25443       -0.01696
C          5.38336        0.34387       -0.03377
C          5.98316        1.60137       -0.00537
C          6.17565       -0.80121       -0.06661
C          7.36006        1.71221       -0.00890
H          5.35092        2.47607        0.01972
C          7.55264       -0.68254       -0.07062
H          5.70713       -1.77249       -0.08909
C          8.14531        0.57048       -0.04163
H          7.82314        2.68718        0.01375
H          8.16826       -1.56933       -0.09650
H          9.22181        0.65661       -0.04474
C         -0.21816        1.41393       -0.01637
H         -0.65335        1.89815        0.85637
H          0.85975        1.57589        0.00355
H         -0.61763        1.89009       -0.91031
I         -5.26988        0.41329        0.05494
