42
-60.34483569
C          1.31612        0.38715        1.01696
C          2.03590       -0.57483        0.06149
C          1.28274       -0.75906       -1.25783
C         -0.19317        0.11961        1.02557
C         -0.22491       -0.90230       -1.01174
C         -0.47359       -1.35395        1.35545
C         -0.50157       -2.04300       -0.02116
H          1.71736        0.25597        2.02283
H          1.65350       -1.64837       -1.76905
H         -1.42485       -1.46029        1.87400
H          1.52239        1.41562        0.71520
H          2.16980       -1.54093        0.56277
H          1.48777        0.09378       -1.90574
H         -0.68534        0.80727        1.71759
H         -0.74048       -1.03898       -1.96563
H          0.29848       -1.76021        2.00503
H         -1.47072       -2.49745       -0.21945
H          0.24889       -2.82586       -0.10597
N         -0.76211        0.26674       -0.31525
C         -2.77394        0.16548       -0.23736
H         -2.71978       -0.77050        0.27335
H         -2.83038        1.07792        0.32594
H         -2.85133        0.18804       -1.30840
O          3.33833       -0.07321       -0.25474
C          4.30081       -0.28995        0.65679
O          4.10033       -0.86297        1.70085
C          5.61543        0.24324        0.23494
C          6.68739        0.12331        1.11700
C          5.80299        0.84877       -1.00507
C          7.93271        0.60502        0.76267
H          6.51988       -0.35063        2.07229
C          7.05189        1.32782       -1.35324
H          4.97114        0.93637       -1.68630
C          8.11548        1.20744       -0.47227
H          8.76244        0.51174        1.44706
H          7.19903        1.79647       -2.31498
H          9.08901        1.58359       -0.74992
C         -0.56011        1.54978       -0.96273
H          0.48826        1.80717       -1.11959
H         -1.05690        1.53779       -1.93170
H         -1.01351        2.32861       -0.35156
I         -5.40084        0.02309       -0.11980
