42
-60.34520899
C          1.23601       -0.06958        1.51502
C          2.03797       -0.54043        0.30003
C          1.37389       -0.14701       -1.02659
C         -0.26536       -0.30794        1.30533
C         -0.13995       -0.38275       -0.96893
C         -0.53564       -1.78169        0.96834
C         -0.44138       -1.83419       -0.56754
H          1.56903       -0.60713        2.40373
H          1.80775       -0.74105       -1.83211
H         -1.52339       -2.07875        1.31612
H          1.43691        0.98886        1.68431
H          2.16630       -1.62914        0.32588
H          1.59075        0.90122       -1.24031
H         -0.81531        0.02924        2.18761
H         -0.59245       -0.10741       -1.92469
H          0.19036       -2.43359        1.44913
H         -1.37553       -2.17214       -1.01255
H          0.34426       -2.50359       -0.91070
N         -0.75283        0.38644        0.11445
C         -2.79372        0.25376        0.01418
H         -2.85554        0.76053        0.95810
H         -2.79295        0.82455       -0.89522
H         -2.76145       -0.81540       -0.01664
O          3.34030        0.04614        0.39125
C          4.33094       -0.59077       -0.25407
O          4.15752       -1.60137       -0.89225
C          5.64066        0.07904       -0.08948
C          5.79004        1.22867        0.68217
C          6.74684       -0.47272       -0.73240
C          7.03516        1.81608        0.80507
H          4.93153        1.65089        1.18057
C          7.98835        0.11965       -0.60515
H          6.60851       -1.36462       -1.32455
C          8.13301        1.26425        0.16318
H          7.15248        2.70730        1.40357
H          8.84471       -0.30892       -1.10370
H          9.10339        1.72769        0.26290
C         -0.55426        1.82278        0.07804
H          0.49142        2.12741        0.14493
H         -0.96208        2.21235       -0.85346
H         -1.09460        2.27549        0.90818
I         -5.42629        0.09869       -0.12440
