42
-60.34596860
C          1.37173       -0.74420        1.25116
C          2.04460       -1.25034       -0.03224
C          1.36167       -0.72314       -1.30170
C         -0.15610       -0.79165        1.11888
C         -0.16514       -0.77246       -1.15862
C         -0.62793       -2.20326        0.73970
C         -0.63558       -2.18974       -0.79957
H          1.68638       -1.36512        2.09201
H          1.66958       -1.33007       -2.15519
H         -1.62143       -2.39638        1.14021
H          1.69273        0.27562        1.45864
H          2.01935       -2.34550       -0.04117
H          1.68152        0.29994       -1.49475
H         -0.61215       -0.43116        2.04419
H         -0.62746       -0.39658       -2.07472
H          0.03921       -2.96170        1.14412
H         -1.63363       -2.37340       -1.19317
H          0.02588       -2.94222       -1.22395
N         -0.60983        0.01672       -0.01143
C         -2.63483        0.14768       -0.00164
H         -2.61857        0.67994       -0.93254
H         -2.77750       -0.91355        0.00447
H         -2.62909        0.69223        0.92076
O          3.45443       -0.98329       -0.03648
C          3.90351        0.27668       -0.02474
O          3.18953        1.25493       -0.00887
C          5.38257        0.34517       -0.03233
C          6.17469       -0.79907       -0.09029
C          5.98252        1.60189        0.01898
C          7.55164       -0.68035       -0.09651
H          5.70602       -1.76969       -0.13101
C          7.35941        1.71271        0.01368
H          5.35049        2.47599        0.06302
C          8.14447        0.57184       -0.04427
H          8.16709       -1.56644       -0.14236
H          7.82264        2.68701        0.05444
H          9.22096        0.65801       -0.04900
C         -0.22081        1.41713       -0.00093
H         -0.63427        1.88886        0.88898
H          0.85712        1.57977       -0.00493
H         -0.64332        1.90500       -0.87786
I         -5.26919        0.41092        0.05271
