42
-60.34665324
C          1.37954       -0.72139        1.24895
C          2.05126       -1.23020       -0.03375
C          1.36934       -0.70316       -1.30362
C         -0.14868       -0.76635        1.11680
C         -0.15781       -0.75053       -1.15972
C         -0.62293       -2.17794        0.74029
C         -0.62882       -2.16734       -0.79903
H          1.69336       -1.34152        2.09072
H          1.67663       -1.31092       -2.15674
H         -1.61739       -2.36790        1.14011
H          1.70200        0.29836        1.45468
H          2.02392       -2.32532       -0.04145
H          1.68985        0.31963       -1.49698
H         -0.60304       -0.40429        2.04246
H         -0.62007       -0.37567       -2.07631
H          0.04215       -2.93698        1.14699
H         -1.62631       -2.35203       -1.19377
H          0.03328       -2.92052       -1.22119
N         -0.60307        0.04004       -0.01411
C         -2.65582        0.17665       -0.00222
H         -2.59543        0.69538        0.93343
H         -2.61826        0.73527       -0.92022
H         -2.76019       -0.88882       -0.01153
O          3.46196       -0.96614       -0.03751
C          3.91405        0.29251       -0.02938
O          3.20317        1.27305       -0.01884
C          5.39358        0.35707       -0.03447
C          5.99654        1.61323       -0.01698
C          6.18302       -0.79023       -0.05609
C          7.37371        1.72057       -0.02065
H          5.36651        2.48973       -0.00043
C          7.56030       -0.67510       -0.05995
H          5.71204       -1.76049       -0.06987
C          8.15612        0.57662       -0.04216
H          7.83924        2.69454       -0.00679
H          8.17368       -1.56367       -0.07690
H          9.23284        0.66001       -0.04516
C         -0.21239        1.43988       -0.00645
H         -0.62940        1.91539        0.87992
H          0.86573        1.60277       -0.00624
H         -0.63023        1.92504       -0.88717
I         -5.28511        0.37436        0.05620
