42
-60.34356534
C          1.29134       -0.76115        1.22661
C          2.03809       -0.58239       -0.09714
C          1.31214        0.37304       -1.05479
C         -0.21768       -0.90426        0.99105
C         -0.19625        0.10191       -1.05483
C         -0.50477       -2.05146        0.01156
C         -0.47204       -1.37569       -1.37149
H          1.66350       -1.64944        1.73859
H          1.70885        0.23634       -2.06176
H         -1.47875       -2.49293        0.21508
H          1.50182        0.09281        1.87126
H          2.17169       -1.55117       -0.59329
H          1.51821        1.40363       -0.76049
H         -0.72597       -1.03348        1.94984
H         -0.69418        0.78260       -1.74960
H          0.23827       -2.84053        0.10309
H         -1.41930       -1.49186       -1.89540
H          0.30481       -1.78576       -2.01295
N         -0.75906        0.26028        0.28851
C         -2.74767        0.15346        0.23334
H         -2.70588       -0.73510       -0.36054
H         -2.77833        0.11608        1.30758
H         -2.83131        1.09529       -0.26943
O          3.34070       -0.07589        0.20943
C          4.30102       -0.30481       -0.70197
O          4.09750       -0.89385       -1.73645
C          5.61623        0.23614       -0.29282
C          6.69131        0.07947       -1.16535
C          5.80143        0.88558        0.92515
C          7.93753        0.56749       -0.82312
H          6.52541       -0.42777       -2.10365
C          7.05108        1.37144        1.26097
H          4.96711        1.00236        1.59896
C          8.11790        1.21377        0.38982
H          8.76973        0.44520       -1.49989
H          7.19630        1.87474        2.20533
H          9.09203        1.59526        0.65787
C         -0.54831        1.54865        0.92390
H         -0.98382        2.32627        0.29844
H         -1.05669        1.55474        1.88695
H          0.50133        1.79304        1.08983
I         -5.40772        0.03890        0.20454
