42
-60.34548049
C          1.22981       -0.08806        1.51294
C          2.03450       -0.55887        0.29972
C          1.37310       -0.16666       -1.02868
C         -0.27159       -0.32332        1.30022
C         -0.14069       -0.40275       -0.97345
C         -0.54595       -1.79670        0.96562
C         -0.44080       -1.85397       -0.56937
H          1.55973       -0.62685        2.40207
H          1.80882       -0.76126       -1.83279
H         -1.53821       -2.08691        1.30635
H          1.43214        0.96987        1.68373
H          2.16385       -1.64745        0.32668
H          1.59001        0.88148       -1.24268
H         -0.82188        0.01696        2.18114
H         -0.59204       -0.12942       -1.93037
H          0.17309       -2.45092        1.45364
H         -1.37001       -2.19821       -1.02011
H          0.34967       -2.52170       -0.90466
N         -0.75551        0.36924        0.10694
C         -2.79484        0.24365        0.00803
H         -2.74659       -0.82073       -0.08413
H         -2.85161        0.70524        0.97624
H         -2.82006        0.84602       -0.87877
O          3.33595        0.02929        0.39309
C          4.32780       -0.60443       -0.25350
O          4.15662       -1.61503       -0.89229
C          5.63560        0.06939       -0.09014
C          5.78281        1.21743        0.68429
C          6.74195       -0.47612       -0.73809
C          7.02590        1.80960        0.80478
H          4.92420        1.63471        1.18665
C          7.98141        0.12107       -0.61334
H          6.60532       -1.36690       -1.33231
C          8.12386        1.26417        0.15762
H          7.14152        2.69963        1.40539
H          8.83786       -0.30251       -1.11598
H          9.09260        1.73145        0.25529
C         -0.55424        1.80523        0.06798
H         -1.10568        2.26129        0.88895
H          0.49076        2.10913        0.14801
H         -0.94897        2.19149       -0.87045
I         -5.41763        0.12558       -0.11796
