42
-60.34332996
C          1.37280       -0.15650        1.00345
C          2.02258       -0.52167       -0.33865
C          1.20642       -0.02713       -1.53501
C         -0.14109       -0.39058        0.95912
C         -0.29145       -0.27299       -1.31384
C         -0.44881       -1.83344        0.53338
C         -0.55378       -1.75347       -1.00061
H          1.81470       -0.76900        1.79059
H          1.52984       -0.54707       -2.43762
H         -1.38068       -2.17672        0.97877
H          1.59462        0.88595        1.23896
H          2.15127       -1.60957       -0.38800
H          1.40506        1.03431       -1.68668
H         -0.58282       -0.13285        1.92459
H         -0.85344        0.07944       -2.18224
H          0.33763       -2.51063        0.85889
H         -1.54172       -2.05036       -1.34781
H          0.17218       -2.39308       -1.49765
N         -0.76386        0.40154       -0.10381
C         -2.74205        0.26791        0.01699
H         -2.76041       -0.80081       -0.01944
H         -2.77700        0.78427        0.95681
H         -2.87812        0.83192       -0.88352
O          3.32300        0.06746       -0.43148
C          4.32068       -0.58496        0.18893
O          4.15130       -1.60914        0.80598
C          5.62938        0.08576        0.02489
C          5.77141        1.25766       -0.71403
C          6.74289       -0.48821        0.63510
C          7.01653        1.84502       -0.83694
H          4.90729        1.69723       -1.18707
C          7.98436        0.10413        0.50773
H          6.61012       -1.39701        1.20226
C          8.12167        1.27096       -0.22782
H          7.12821        2.75359       -1.40982
H          8.84635       -0.34171        0.98071
H          9.09199        1.73444       -0.32753
C         -0.55794        1.83700       -0.04336
H          0.48948        2.13433       -0.10288
H         -1.09340        2.30627       -0.86729
H         -0.96621        2.21344        0.89325
I         -5.40816        0.07581        0.19475
