42
-60.34314774
C          1.32283        0.38931        1.04771
C          2.03658       -0.56811        0.08307
C          1.27708       -0.74169       -1.23390
C         -0.18606        0.12068        1.06184
C         -0.23068       -0.87901       -0.98686
C         -0.46102       -1.35783        1.37624
C         -0.51950       -2.02686       -0.00914
H          1.72956        0.25267        2.05064
H          1.64157       -1.62989       -1.75152
H         -1.39941       -1.47513        1.91556
H          1.52719        1.41923        0.74977
H          2.17090       -1.53809        0.57669
H          1.48467        0.11359       -1.87792
H         -0.67695        0.80055        1.76234
H         -0.74507       -1.00237       -1.94326
H          0.32536       -1.77314        2.00254
H         -1.50312       -2.45136       -0.20158
H          0.21084       -2.82608       -0.11362
N         -0.75978        0.28418       -0.27540
C         -2.75942        0.17633       -0.20950
H         -2.78446        0.02708       -1.27351
H         -2.72695       -0.65212        0.45809
H         -2.95196        1.13985        0.22049
O          3.33817       -0.06658       -0.23597
C          4.30413       -0.28958        0.67073
O          4.10682       -0.86962        1.71149
C          5.61711        0.24665        0.24820
C          6.69415        0.11212        1.12197
C          5.79820        0.87020       -0.98384
C          7.93811        0.59703        0.76729
H          6.53153       -0.37553        2.07118
C          7.04573        1.35258       -1.33230
H          4.96243        0.96932       -1.65866
C          8.11440        1.21751       -0.45963
H          8.77178        0.49232        1.44521
H          7.18783        1.83545       -2.28774
H          9.08680        1.59642       -0.73745
C         -0.56219        1.57542       -0.90761
H          0.48382        1.81967       -1.09781
H         -1.09469        1.58776       -1.85749
H         -0.98186        2.34833       -0.26592
I         -5.40267        0.00606       -0.16529
