42
-60.34623480
C          1.29781       -0.75952        1.20906
C          2.04572       -0.58655       -0.11436
C          1.32126        0.36662       -1.07460
C         -0.21103       -0.90675        0.97026
C         -0.18747        0.09273       -1.07677
C         -0.49331       -2.05817       -0.00601
C         -0.46224       -1.38563       -1.39071
H          1.67195       -1.64290        1.72803
H          1.72124        0.23128       -2.08041
H         -1.46620       -2.50191        0.19795
H          1.50299        0.10058        1.84739
H          2.17865       -1.55698       -0.60739
H          1.52276        1.39764       -0.77817
H         -0.72083       -1.03391        1.92869
H         -0.68409        0.77131       -1.77477
H          0.25210       -2.84477        0.08797
H         -1.41109       -1.50188       -1.91176
H          0.31341       -1.79716       -2.03270
N         -0.75494        0.25066        0.26226
C         -2.81010        0.13337        0.20400
H         -2.86353        1.07580       -0.30720
H         -2.74258       -0.76407       -0.37365
H         -2.82721        0.08208        1.27559
O          3.34928       -0.08079        0.19217
C          4.31018       -0.31066       -0.71695
O          4.10983       -0.90013       -1.75195
C          5.62521        0.23020       -0.30504
C          6.69885        0.08690       -1.18149
C          5.81116        0.86576        0.92004
C          7.94433        0.57482       -0.83631
H          6.53245       -0.40996       -2.12527
C          7.06015        1.35117        1.25906
H          4.97792        0.97180        1.59694
C          8.12551        1.20716        0.38380
H          8.77541        0.46315       -1.51634
H          7.20600        1.84333        2.20921
H          9.09913        1.58830        0.65429
C         -0.56412        1.54197        0.89445
H         -1.08059        1.54460        1.85323
H          0.48150        1.80162        1.06884
H         -1.00382        2.31230        0.26280
I         -5.41426        0.05300        0.23969
