42
-60.34577270
C          1.36971       -0.70759        1.27453
C          2.04273       -1.23500       -0.00001
C          1.36033       -0.72924       -1.27838
C         -0.15844       -0.76037        1.14243
C         -0.16687       -0.77968       -1.13424
C         -0.62498       -2.18045        0.78754
C         -0.63031       -2.19367       -0.75200
H          1.68594       -1.31280        2.12622
H          1.67028       -1.34893       -2.12193
H         -1.61787       -2.37137        1.19151
H          1.68853        0.31654        1.46339
H          2.01710       -2.33018        0.00931
H          1.67759        0.29148       -1.48707
H         -0.61635       -0.38541        2.06110
H         -0.63112       -0.42040       -2.05604
H          0.04476       -2.92918        1.20567
H         -1.62575       -2.39243       -1.14589
H          0.03697       -2.94910       -1.16198
N         -0.61405        0.02716       -0.00101
C         -2.66723        0.17019        0.00817
H         -2.69019       -0.90334        0.00699
H         -2.68931        0.75862        0.90279
H         -2.67728        0.72651       -0.90368
O          3.45316       -0.96979       -0.00686
C          3.90486        0.28891       -0.02071
O          3.19396        1.26936       -0.02971
C          5.38453        0.35302       -0.02462
C          6.17347       -0.79422        0.01250
C          5.98810        1.60831       -0.06581
C          7.55082       -0.67997        0.00809
H          5.70205       -1.76381        0.04510
C          7.36536        1.71477       -0.07076
H          5.35851        2.48484       -0.09375
C          8.14725        0.57087       -0.03372
H          8.16374       -1.56855        0.03738
H          7.83140        2.68805       -0.10331
H          9.22403        0.65360       -0.03726
C         -0.22478        1.42769       -0.01399
H         -0.64788        1.89906       -0.89962
H         -0.64008        1.91284        0.86787
H          0.85282        1.59442       -0.02013
I         -5.26686        0.38923        0.02086
