42
-60.34592848
C          1.33232        0.41777        1.05509
C          2.04298       -0.53181        0.08129
C          1.28141       -0.68923       -1.23600
C         -0.17681        0.14667        1.07190
C         -0.22563       -0.83313       -0.98435
C         -0.44950       -1.33467        1.37421
C         -0.50700       -1.99175       -0.01694
H          1.74324        0.27565        2.05556
H          1.64693       -1.56894       -1.76719
H         -1.38870       -1.45614        1.91112
H          1.53280        1.44994        0.76199
H          2.17423       -1.50721        0.56477
H          1.48354        0.17623       -1.86814
H         -0.66501        0.81949        1.78130
H         -0.74332       -0.94914       -1.94000
H          0.33668       -1.75468        1.99764
H         -1.48903       -2.41871       -0.21175
H          0.22694       -2.78656       -0.12978
N         -0.75845        0.31864       -0.25934
C         -2.81217        0.19048       -0.18294
H         -2.80404        0.08485       -1.25270
H         -2.76532       -0.65634        0.46547
H         -2.90370        1.15702        0.27329
O          3.34692       -0.03121       -0.23169
C          4.31551       -0.28348        0.66337
O          4.12155       -0.88978        1.68984
C          5.62999        0.25611        0.24826
C          6.71571        0.07065        1.10164
C          5.80364        0.93225       -0.95672
C          7.96111        0.55646        0.75328
H          6.55863       -0.45711        2.03011
C          7.05247        1.41592       -1.29875
H          4.96088        1.07143       -1.61560
C          8.12998        1.22948       -0.44668
H          8.80165        0.41163        1.41518
H          7.18867        1.94013       -2.23306
H          9.10341        1.60947       -0.71943
C         -0.57604        1.61603       -0.88084
H         -1.11399        1.63202       -1.82773
H         -0.99752        2.38085       -0.23038
H          0.46678        1.87269       -1.07592
I         -5.41498       -0.04011       -0.17511
