42
tsb_conformer10.log	Energy: -706579.0442445
C          0.98448        0.65896       -1.28909
C          1.66035        1.15159        0.00005
C          0.98449        0.65895        1.28918
C         -0.54344        0.71869       -1.15444
C         -0.54343        0.71874        1.15453
C         -1.03614        2.12712       -0.77401
C         -1.03601        2.12719        0.77405
H          1.29947        1.29366       -2.13083
H          1.29951        1.29363        2.13093
H         -2.04207        2.30925       -1.17415
H          1.30209       -0.36433       -1.52305
H          1.61513        2.25002        0.00005
H          1.30207       -0.36436        1.52311
H         -1.01685        0.33685       -2.07123
H         -1.01689        0.33698        2.07133
H         -0.38293        2.90128       -1.19995
H         -2.04186        2.30953        1.17438
H         -0.38260        2.90129        1.19979
N         -0.99011       -0.09476        0.00006
C         -2.95216       -0.21901        0.00002
H         -2.98914       -0.76380       -0.93861
H         -2.98910       -0.76512        0.93789
H         -3.16294        0.84226        0.00078
O          3.07071        0.91340        0.00002
C          3.55792       -0.33222        0.00005
O          2.87092       -1.32686        0.00009
C          5.04848       -0.35628       -0.00000
C          5.68205       -1.60390        0.00003
C          5.81240        0.81646       -0.00009
C          7.07125       -1.67859       -0.00002
H          5.06679       -2.50533        0.00010
C          7.20223        0.73708       -0.00014
H          5.31123        1.78478       -0.00012
C          7.83126       -0.50829       -0.00011
H          7.56467       -2.65247        0.00001
H          7.79893        1.65140       -0.00021
H          8.92192       -0.56709       -0.00015
C         -0.57685       -1.49735        0.00011
H         -0.99489       -1.98888       -0.88952
H          0.51375       -1.63284       -0.00009
H         -0.99451       -1.98871        0.89001
I         -5.65029       -0.44834       -0.00005
