42
-60.34717723
C          1.36510       -0.70523        1.24472
C          2.04139       -1.23352       -0.02749
C          1.36235       -0.72699       -1.30715
C         -0.16269       -0.75382        1.10993
C         -0.16490       -0.77906       -1.16607
C         -0.63706       -2.17148        0.75823
C         -0.62739       -2.19265       -0.78096
H          1.67707       -1.31142        2.09730
H          1.67480       -1.34561       -2.15055
H         -1.63691       -2.34782        1.15076
H          1.68609        0.31796        1.43523
H          2.01489       -2.32865       -0.01778
H          1.67929        0.29429       -1.51370
H         -0.61748       -0.37604        2.02921
H         -0.62770       -0.42287       -2.08984
H          0.02068       -2.92434        1.18763
H         -1.61834       -2.39747       -1.18246
H          0.04642       -2.94776       -1.18062
N         -0.61758        0.03058       -0.03625
C         -2.66295        0.16484       -0.02175
H         -2.56873        0.60932        0.95024
H         -2.65436        0.77081       -0.91007
H         -2.75703       -0.89608       -0.11381
O          3.45184       -0.96877       -0.03071
C          3.90371        0.28996       -0.04195
O          3.19277        1.27040       -0.05110
C          5.38334        0.35407       -0.04176
C          6.17221       -0.79364       -0.02010
C          5.98700        1.60982       -0.06312
C          7.54956       -0.67937       -0.01982
H          5.70071       -1.76359       -0.00334
C          7.36426        1.71631       -0.06301
H          5.35748        2.48669       -0.07961
C          8.14607        0.57196       -0.04127
H          8.16242       -1.56829       -0.00273
H          7.83037        2.68996       -0.07975
H          9.22285        0.65471       -0.04091
C         -0.22898        1.43113       -0.05381
H          0.84854        1.59669       -0.03739
H         -0.63092        1.89427       -0.95353
H         -0.66413        1.92645        0.81285
I         -5.26415        0.38618        0.07049
