42
-60.34562479
C          1.33348        0.36668        1.05578
C          2.04806       -0.58704        0.08863
C          1.28784       -0.75803       -1.22804
C         -0.17519        0.09390        1.07150
C         -0.21947       -0.90137       -0.97738
C         -0.44621       -1.38554        1.38473
C         -0.49823       -2.05370       -0.00149
H          1.74246        0.23038        2.05782
H          1.65489       -1.64257       -1.75010
H         -1.38640       -1.50431        1.92079
H          1.53346        1.39758        0.75802
H          2.18373       -1.55808        0.57973
H          1.49035        0.10119       -1.86841
H         -0.66578        0.77105        1.77507
H         -0.73624       -1.02550       -1.93254
H          0.33920       -1.79912        2.01340
H         -1.47705       -2.48879       -0.19557
H          0.24007       -2.84555       -0.10664
N         -0.75485        0.25598       -0.26231
C         -2.80300        0.14213       -0.18440
H         -2.79561        0.05757       -1.25300
H         -2.72033       -0.73157        0.43202
H         -2.88065        1.11350        0.26578
O          3.34956       -0.08323       -0.22917
C          4.31618       -0.30911        0.67512
O          4.12212       -0.89482        1.71344
C          5.62835        0.23080        0.25335
C          6.70615        0.09595        1.12603
C          5.80751        0.85804       -0.97704
C          7.94896        0.58432        0.77200
H          6.54499       -0.39448        2.07408
C          7.05390        1.34374       -1.32500
H          4.97103        0.95738       -1.65095
C          8.12336        1.20842       -0.45335
H          8.78322        0.47950        1.44921
H          7.19448        1.82942       -2.27927
H          9.09490        1.58988       -0.73075
C         -0.56448        1.54830       -0.89309
H         -1.09759        1.55914       -1.84278
H         -0.98636        2.31955       -0.25056
H          0.47995        1.79995       -1.08499
I         -5.41976        0.04815       -0.18197
