42
-60.34468269
C          1.30681       -0.77695        1.27668
C          2.04406       -0.58268       -0.05006
C          1.31247        0.38622       -0.98921
C         -0.20301       -0.92337        1.04447
C         -0.19728        0.12010       -0.98183
C         -0.48424       -2.05486        0.04414
C         -0.48513       -1.34881       -1.32415
H          1.68602       -1.66800        1.77859
H          1.70109        0.26283       -2.00102
H         -1.44460       -2.52376        0.25174
H          1.51528        0.07310        1.92712
H          2.17219       -1.54492       -0.56011
H          1.52302        1.41232       -0.68223
H         -0.70912       -1.07209        2.00167
H         -0.69610        0.81588       -1.66084
H          0.27585       -2.83045        0.10747
H         -1.44842       -1.44612       -1.82161
H          0.27202       -1.74769       -1.99546
N         -0.75078        0.25144        0.36666
C         -2.77904        0.14934        0.29707
H         -2.72550       -0.82650       -0.13983
H         -2.84302        0.25297        1.36404
H         -2.80297        1.03285       -0.31039
O          3.35016       -0.08170        0.25213
C          4.30453       -0.30627       -0.66588
O          4.09580       -0.89026       -1.70223
C          5.62227        0.23340       -0.26197
C          6.69198        0.08251       -1.14201
C          5.81428        0.87734        0.95782
C          7.93955        0.57117       -0.80558
H          6.52088       -0.42060       -2.08161
C          7.06523        1.36385        1.28785
H          4.98404        0.98952        1.63741
C          8.12664        1.21226        0.40907
H          8.76757        0.45355       -1.48831
H          7.21565        1.86306        2.23358
H          9.10175        1.59452        0.67245
C         -0.54586        1.52766        1.02590
H          0.50351        1.79852        1.15148
H         -1.03084        2.30846        0.44195
H         -1.00867        1.49474        2.01110
I         -5.41583        0.04238        0.10824
