42
tsb_conformer16.log	Energy: -706579.0445457
C          0.98453        0.65923       -1.28918
C          1.66038        1.15171        0.00003
C          0.98447        0.65900        1.28912
C         -0.54340        0.71900       -1.15455
C         -0.54345        0.71881        1.15444
C         -1.03606        2.12741       -0.77398
C         -1.03608        2.12728        0.77409
H          1.29955        1.29400       -2.13085
H          1.29947        1.29362        2.13091
H         -2.04196        2.30963       -1.17422
H          1.30211       -0.36405       -1.52324
H          1.61523        2.25014        0.00012
H          1.30204       -0.36432        1.52300
H         -1.01682        0.33730       -2.07139
H         -1.01691        0.33695        2.07120
H         -0.38276        2.90159       -1.19975
H         -2.04199        2.30945        1.17433
H         -0.38279        2.90139        1.20000
N         -0.99009       -0.09457       -0.00013
C         -2.95213       -0.21891       -0.00007
H         -2.98911       -0.76426       -0.93839
H         -2.98900       -0.76446        0.93813
H         -3.16300        0.84234        0.00004
O          3.07075        0.91345        0.00003
C          3.55789       -0.33220       -0.00004
O          2.87084       -1.32680       -0.00013
C          5.04844       -0.35635        0.00001
C          5.68193       -1.60400        0.00002
C          5.81244        0.81635        0.00004
C          7.07113       -1.67879        0.00006
H          5.06661       -2.50539       -0.00001
C          7.20226        0.73688        0.00009
H          5.31133        1.78470        0.00003
C          7.83121       -0.50853        0.00010
H          7.56449       -2.65270        0.00007
H          7.79902        1.65116        0.00011
H          8.92188       -0.56741        0.00014
C         -0.57683       -1.49717       -0.00024
H         -0.99466       -1.98854       -0.89005
H          0.51377       -1.63267       -0.00022
H         -0.99470       -1.98869        0.88948
I         -5.65027       -0.44848        0.00005
