42
-60.34347603
C          1.29470       -0.76511        1.23425
C          2.03972       -0.58252       -0.09008
C          1.31332        0.37687       -1.04345
C         -0.21406       -0.91007        0.99762
C         -0.19580        0.10931       -1.04230
C         -0.49546       -2.05216        0.00985
C         -0.47831       -1.36474       -1.36784
H          1.66898       -1.65363        1.74425
H          1.70811        0.24280       -2.05151
H         -1.46190       -2.50931        0.21515
H          1.50352        0.08834        1.88006
H          2.17168       -1.54951       -0.59019
H          1.52184        1.40619       -0.74626
H         -0.72432       -1.04554        1.95442
H         -0.69287        0.79600       -1.73163
H          0.25744       -2.83311        0.09033
H         -1.43342       -1.47213       -1.87906
H          0.28897       -1.77153       -2.02272
N         -0.75427        0.25931        0.30308
C         -2.74793        0.16095        0.24283
H         -2.84688        1.06757       -0.32516
H         -2.69951       -0.77937       -0.25814
H         -2.84411        0.17851        1.31047
O          3.34318       -0.07851        0.21674
C          4.30085       -0.29968       -0.69937
O          4.09426       -0.87973       -1.73830
C          5.61706        0.23812       -0.28934
C          6.68767        0.09785       -1.17012
C          5.80741        0.86879        0.93767
C          7.93447        0.58395       -0.82723
H          6.51792       -0.39517       -2.11529
C          7.05767        1.35255        1.27420
H          4.97659        0.97248        1.61790
C          8.11996        1.21160        0.39468
H          8.76317        0.47466       -1.51049
H          7.20691        1.84109        2.22565
H          9.09454        1.59155        0.66323
C         -0.54623        1.54366        0.94697
H          0.50357        1.79947        1.09487
H         -1.00389        2.32138        0.33774
H         -1.03587        1.53372        1.91949
I         -5.41005        0.03588        0.19043
