42
-60.34425355
C          1.37859       -0.18572        1.01195
C          2.02563       -0.53890       -0.33456
C          1.20636       -0.03543       -1.52492
C         -0.13496       -0.42343        0.96756
C         -0.29177       -0.28014       -1.30218
C         -0.43672       -1.86327        0.52573
C         -0.55756       -1.76333       -1.00596
H          1.82389       -0.80306        1.79334
H          1.52672       -0.54899       -2.43227
H         -1.36029       -2.22272        0.97629
H          1.59739        0.85572        1.25456
H          2.15543       -1.62623       -0.39328
H          1.40589        1.02691       -1.66917
H         -0.57559       -0.17859        1.93705
H         -0.85380        0.08326       -2.16612
H          0.35859       -2.53818        0.83411
H         -1.55148       -2.04906       -1.34566
H          0.15949       -2.40032       -1.51904
N         -0.76276        0.37934       -0.08390
C         -2.76582        0.25184        0.03393
H         -2.77558        0.79441        0.95761
H         -2.87501        0.76908       -0.90269
H         -2.71537       -0.81345        0.07625
O          3.32545        0.05228       -0.42764
C          4.32174       -0.59166        0.20271
O          4.15233       -1.60874        0.83157
C          5.63035        0.07857        0.03393
C          5.77879        1.22260       -0.74623
C          6.73718       -0.46833        0.67998
C          7.02376        1.80915       -0.87460
H          4.91989        1.64064       -1.24749
C          7.97835        0.12364        0.54782
H          6.59957       -1.35604        1.27856
C          8.12217        1.26242       -0.22928
H          7.14059        2.69557       -1.48026
H          8.83511       -0.30089        1.04911
H          9.09241        1.72514       -0.33339
C         -0.55566        1.81387       -0.00780
H          0.48958        2.11504       -0.08818
H         -1.11192        2.29367       -0.81171
H         -0.94158        2.17646        0.94362
I         -5.41016        0.10475        0.17582
