42
-60.34435274
C          1.37811       -0.17189        0.97411
C          2.03224       -0.53969       -0.36487
C          1.22022       -0.04838       -1.56527
C         -0.13693       -0.40071        0.92573
C         -0.27820       -0.29666       -1.34692
C         -0.45037       -1.84484        0.50928
C         -0.53417       -1.77734       -1.02666
H          1.81551       -0.78417        1.76392
H          1.54826       -0.56864       -2.46604
H         -1.39236       -2.17357        0.94454
H          1.60151        0.87046        1.20886
H          2.16220       -1.62758       -0.41088
H          1.41612        1.01364       -1.71641
H         -0.57814       -0.13584        1.88970
H         -0.83967        0.04928       -2.21840
H          0.32526       -2.52628        0.85137
H         -1.51343       -2.08791       -1.38715
H          0.20465       -2.41428       -1.50808
N         -0.75648        0.38352       -0.14335
C         -2.78071        0.25677       -0.00971
H         -2.73229       -0.79978       -0.17461
H         -2.72585        0.66464        0.98004
H         -2.92804        0.92167       -0.83927
O          3.33284        0.05061       -0.45460
C          4.32927       -0.59787        0.17049
O          4.16135       -1.62131        0.78933
C          5.63707        0.07619        0.00937
C          5.77944        1.24305       -0.73735
C          6.74893       -0.48947        0.63009
C          7.02332        1.83359       -0.85771
H          4.91652        1.67618       -1.21848
C          7.98917        0.10608        0.50542
H          6.61591       -1.39449        1.20324
C          8.12686        1.26780       -0.23811
H          7.13525        2.73823       -1.43680
H          8.84991       -0.33331        0.98668
H          9.09626        1.73369       -0.33589
C         -0.55223        1.81916       -0.09240
H         -0.99655        2.20658        0.82322
H          0.49659        2.11869       -0.11567
H         -1.05580        2.27759       -0.94210
I         -5.42031        0.10313        0.24432
