42
-60.34721274
C          1.36933       -0.73140        1.28043
C          2.04038       -1.24286       -0.00155
C          1.35477       -0.72151       -1.27175
C         -0.15885       -0.78473        1.15045
C         -0.17194       -0.77361       -1.12575
C         -0.62398       -2.20062        0.77757
C         -0.63759       -2.19134       -0.76177
H          1.68765       -1.34651        2.12422
H          1.66262       -1.33079       -2.12362
H         -1.61431       -2.40016        1.18333
H          1.68739        0.29072        1.48104
H          2.01524       -2.33808       -0.00580
H          1.67195        0.30161       -1.46877
H         -0.61483       -0.42310        2.07551
H         -0.63585       -0.40263       -2.04319
H          0.04972       -2.95364        1.18134
H         -1.63666       -2.37853       -1.15151
H          0.02417       -2.94329       -1.18666
N         -0.61979        0.01745        0.01874
C         -2.66276        0.15270        0.02464
H         -2.60814        0.65142       -0.92355
H         -2.73825       -0.91426        0.06588
H         -2.64100        0.71994        0.93543
O          3.45043       -0.97655       -0.00892
C          3.90116        0.28270       -0.00652
O          3.18928        1.26244        0.00248
C          5.38068        0.34797       -0.01664
C          6.17022       -0.79938       -0.03283
C          5.98358        1.60425       -0.01014
C          7.54746       -0.68426       -0.04241
H          5.69928       -1.76973       -0.03795
C          7.36076        1.71158       -0.01961
H          5.35360        2.48085        0.00243
C          8.14322        0.56759       -0.03581
H          8.16080       -1.57293       -0.05515
H          7.82631        2.68563       -0.01444
H          9.21991        0.65101       -0.04342
C         -0.23133        1.41828        0.02417
H         -0.66161        1.90435       -0.85005
H         -0.63865        1.89055        0.91670
H          0.84616        1.58419        0.01168
I         -5.26060        0.40530        0.00455
