42
-60.34493964
C          1.37335       -0.18152        1.01417
C          2.02299       -0.54493       -0.32818
C          1.20520       -0.05112       -1.52343
C         -0.14008       -0.42079        0.96996
C         -0.29232       -0.30007       -1.30112
C         -0.44217       -1.86454        0.54253
C         -0.55234       -1.78154       -0.99091
H          1.81810       -0.79165        1.80156
H          1.52933       -0.56895       -2.42701
H         -1.37089       -2.21373        0.99014
H          1.59065        0.86222        1.24824
H          2.15354       -1.63254       -0.37844
H          1.40080        1.01118       -1.67335
H         -0.58137       -0.16657        1.93679
H         -0.85467        0.05259       -2.16934
H          0.34854       -2.53862        0.86417
H         -1.54191       -2.07690       -1.33483
H          0.17190       -2.42000       -1.49194
N         -0.76873        0.36890       -0.09037
C         -2.77556        0.22950        0.02899
H         -2.75449        0.74800        0.96653
H         -2.87553        0.77783       -0.88851
H         -2.77099       -0.84026        0.02439
O          3.32272        0.04645       -0.42142
C          4.32257       -0.60576        0.19449
O          4.15771       -1.63276        0.80825
C          5.62960        0.06889        0.03028
C          5.76685        1.24468       -0.70328
C          6.74612       -0.50541        0.63453
C          7.01028        1.83549       -0.82693
H          4.90031        1.68459       -1.17159
C          7.98591        0.09032        0.50644
H          6.61701       -1.41726        1.19765
C          8.11848        1.26100       -0.22386
H          7.11821        2.74715       -1.39567
H          8.85028       -0.35588        0.97475
H          9.08749        1.72714       -0.32414
C         -0.56980        1.80480       -0.02803
H          0.47541        2.10944       -0.09499
H         -1.11443        2.27299       -0.84665
H         -0.97259        2.17745        0.91255
I         -5.40402        0.12375        0.17696
