42
tsb_conformer2.log	Energy: -706579.0452925
C         -0.98457        0.65919        1.28909
C         -1.66039        1.15168       -0.00013
C         -0.98445        0.65895       -1.28919
C          0.54336        0.71901        1.15450
C          0.54348        0.71875       -1.15448
C          1.03596        2.12744        0.77390
C          1.03612        2.12722       -0.77417
H         -1.29965        1.29392        2.13077
H         -1.29942        1.29354       -2.13102
H          2.04180        2.30977        1.17422
H         -1.30212       -0.36411        1.52309
H         -1.61522        2.25012       -0.00023
H         -1.30201       -0.36438       -1.52304
H          1.01678        0.33736        2.07137
H          1.01694        0.33686       -2.07122
H          0.38256        2.90159        1.19956
H          2.04207        2.30932       -1.17433
H          0.38289        2.90132       -1.20019
N          0.99010       -0.09459        0.00013
C          2.95214       -0.21890        0.00018
H          2.98905       -0.76476        0.93820
H          2.98912       -0.76394       -0.93832
H          3.16301        0.84234        0.00069
O         -3.07075        0.91343       -0.00017
C         -3.55791       -0.33220       -0.00004
O         -2.87086       -1.32682        0.00006
C         -5.04846       -0.35634       -0.00002
C         -5.68196       -1.60398       -0.00014
C         -5.81244        0.81637        0.00013
C         -7.07116       -1.67876       -0.00011
H         -5.06665       -2.50539       -0.00024
C         -7.20227        0.73691        0.00016
H         -5.31132        1.78472        0.00022
C         -7.83123       -0.50850        0.00004
H         -7.56453       -2.65266       -0.00021
H         -7.79902        1.65120        0.00029
H         -8.92190       -0.56736        0.00007
C          0.57686       -1.49719        0.00027
H          0.99452       -1.98848        0.89021
H         -0.51373       -1.63271        0.00005
H          0.99493       -1.98878       -0.88932
I          5.65030       -0.44846       -0.00001
