42
-60.34643160
C          1.35466       -0.68160        1.24239
C          2.03119       -1.21121       -0.02899
C          1.35424       -0.70380       -1.30932
C         -0.17322       -0.72494        1.10634
C         -0.17323       -0.75309       -1.16874
C         -0.65306       -2.14128        0.75668
C         -0.63588       -2.16669       -0.78238
H          1.66362       -1.28917        2.09512
H          1.66607       -1.32341       -2.15226
H         -1.65628       -2.31089        1.14393
H          1.67842        0.34053        1.43384
H          2.00285       -2.30630       -0.01887
H          1.67303        0.31685       -1.51596
H         -0.62535       -0.34488        2.02623
H         -0.63508       -0.39745       -2.09330
H         -0.00164       -2.89646        1.19161
H         -1.62424       -2.37645       -1.18832
H          0.04152       -2.92149       -1.17655
N         -0.62642        0.05918       -0.04068
C         -2.67284        0.21654       -0.02172
H         -2.55373        0.56923        0.98810
H         -2.70172        0.82251       -0.91187
H         -2.70377       -0.83241       -0.17134
O          3.44236       -0.94905       -0.03099
C          3.89661        0.30864       -0.04235
O          3.18800        1.29075       -0.05179
C          5.37648        0.37022       -0.04229
C          6.16375       -0.77847       -0.01814
C          5.98181        1.62509       -0.06675
C          7.54127       -0.66601       -0.01862
H          5.69094       -1.74775        0.00113
C          7.35920        1.72979       -0.06748
H          5.35337        2.50270       -0.08506
C          8.13947        0.58445       -0.04336
H          8.15298       -1.55570        0.00039
H          7.82656        2.70281       -0.08672
H          9.21636        0.66576       -0.04372
C         -0.23011        1.45813       -0.06054
H         -0.62488        1.91851       -0.96472
H         -0.67059        1.95796        0.80077
H          0.84774        1.62096       -0.03727
I         -5.24798        0.33957        0.07450
