42
-60.34509043
C          1.29046       -0.76179        1.23883
C          2.03338       -0.56982       -0.08502
C          1.30776        0.39994       -1.02799
C         -0.21976       -0.89989        1.00448
C         -0.20184        0.13299       -1.02672
C         -0.50834       -2.03455        0.01039
C         -0.48345       -1.33914       -1.36314
H          1.66330       -1.65542        1.74097
H          1.70171        0.27630       -2.03769
H         -1.47961       -2.48334        0.21176
H          1.50237        0.08612        1.89100
H          2.16161       -1.53285       -0.59361
H          1.51644        1.42587       -0.71935
H         -0.72602       -1.04134        1.96282
H         -0.69991        0.82451       -1.71063
H          0.23754       -2.82255        0.08770
H         -1.43532       -1.44396       -1.88117
H          0.28744       -1.74227       -2.01611
N         -0.76120        0.27299        0.31871
C         -2.78964        0.17730        0.26260
H         -2.69864       -0.72669       -0.29487
H         -2.80767        0.11172        1.33172
H         -2.89467        1.13082       -0.22705
O          3.33943       -0.07231        0.22359
C          4.29393       -0.28604       -0.69661
O          4.08515       -0.85605       -1.74075
C          5.61204        0.24694       -0.28498
C          6.67676        0.12711       -1.17576
C          5.80944        0.85337        0.95302
C          7.92464        0.60995       -0.83215
H          6.50157       -0.34751       -2.12933
C          7.06084        1.33361        1.29046
H          4.98316        0.94097        1.64101
C          8.11717        1.21348        0.40076
H          8.74870        0.51681       -1.52338
H          7.21561        1.80319        2.25055
H          9.09264        1.59078        0.66994
C         -0.55239        1.55279        0.97027
H         -1.05586        1.54278        1.93589
H          0.49685        1.80284        1.13477
H         -0.99591        2.33571        0.35718
I         -5.39493        0.01063        0.17378
