42
tsb_conformer13.log	Energy: -706579.0451544
C         -0.98450        0.65918        1.28913
C         -1.66041        1.15174       -0.00002
C         -0.98452        0.65915       -1.28917
C          0.54342        0.71900        1.15447
C          0.54341        0.71899       -1.15452
C          1.03603        2.12744        0.77401
C          1.03599        2.12745       -0.77407
H         -1.29953        1.29388        2.13085
H         -1.29955        1.29382       -2.13091
H          2.04194        2.30965        1.17421
H         -1.30206       -0.36413        1.52312
H         -1.61529        2.25017       -0.00004
H         -1.30206       -0.36417       -1.52313
H          1.01687        0.33723        2.07127
H          1.01686        0.33722       -2.07131
H          0.38274        2.90158        1.19987
H          2.04187        2.30971       -1.17433
H          0.38264        2.90156       -1.19989
N          0.99010       -0.09446       -0.00002
C          2.95214       -0.21886       -0.00003
H          2.98904       -0.76463       -0.93810
H          3.16309        0.84237       -0.00043
H          2.98906       -0.76397        0.93842
O         -3.07076        0.91344       -0.00001
C         -3.55788       -0.33221        0.00000
O         -2.87080       -1.32680        0.00000
C         -5.04843       -0.35639        0.00001
C         -5.68191       -1.60405       -0.00003
C         -5.81244        0.81630        0.00006
C         -7.07110       -1.67886       -0.00003
H         -5.06657       -2.50544       -0.00007
C         -7.20226        0.73681        0.00007
H         -5.31134        1.78465        0.00010
C         -7.83120       -0.50861        0.00003
H         -7.56445       -2.65278       -0.00006
H         -7.79904        1.65108        0.00012
H         -8.92186       -0.56750        0.00003
C          0.57686       -1.49707       -0.00001
H          0.99479       -1.98852        0.88971
H         -0.51374       -1.63258        0.00008
H          0.99463       -1.98850       -0.88982
I          5.65028       -0.44854        0.00002
