42
-60.34535672
C          1.37948       -0.17336        0.99419
C          2.03006       -0.53290       -0.34859
C          1.21467       -0.03337       -1.54310
C         -0.13502       -0.40737        0.94786
C         -0.28306       -0.28522       -1.32303
C         -0.44347       -1.84954        0.52032
C         -0.53767       -1.76846       -1.01438
H          1.82149       -0.78765        1.77984
H          1.54131       -0.54583       -2.44884
H         -1.38044       -2.18825        0.95879
H          1.59932        0.86894        1.23256
H          2.15894       -1.62057       -0.40207
H          1.40854        1.03019       -1.68599
H         -0.57533       -0.15182        1.91479
H         -0.84646        0.06718       -2.19069
H          0.33816       -2.52970        0.85120
H         -1.52028       -2.07350       -1.37024
H          0.19685       -2.40204       -1.50669
N         -0.76011        0.38290       -0.11292
C         -2.79558        0.24879        0.01785
H         -2.74601       -0.81213       -0.10444
H         -2.76106        0.68321        0.99837
H         -2.93113        0.87660       -0.84160
O          3.33119        0.05649       -0.43891
C          4.32709       -0.59334        0.18515
O          4.15833       -1.61599        0.80518
C          5.63620        0.07779        0.02157
C          5.78246        1.23624       -0.73735
C          6.74540       -0.48274        0.65162
C          7.02760        1.82358       -0.86051
H          4.92162        1.66513       -1.22595
C          7.98682        0.10981        0.52445
H          6.60937       -1.38144        1.23392
C          8.12843        1.26312       -0.23133
H          7.14265        2.72152       -1.44935
H          8.84547       -0.32551        1.01312
H          9.09880        1.72651       -0.33127
C         -0.56372        1.81877       -0.04972
H         -0.99545        2.19332        0.87717
H          0.48277        2.12575       -0.08664
H         -1.08417        2.28314       -0.88594
I         -5.41549        0.10029        0.20791
