42
-60.34668228
C          1.37777       -0.70361        1.30793
C          2.04071       -1.20915        0.01931
C          1.35138       -0.67662       -1.24421
C         -0.15106       -0.75200        1.18422
C         -0.17497       -0.71892       -1.09225
C         -0.61954       -2.16379        0.79895
C         -0.65258       -2.13513       -0.73981
H          1.69858       -1.32481        2.14628
H          1.65089       -1.28303       -2.10106
H         -1.60371       -2.37268        1.21499
H          1.69953        0.31649        1.51292
H          2.01145       -2.30419        0.00748
H          1.67441        0.34541       -1.43746
H         -0.60353       -0.39768        2.11377
H         -0.63867       -0.33547       -2.00457
H          0.06087       -2.92036        1.18449
H         -1.65964       -2.30239       -1.11750
H         -0.00651       -2.89019       -1.18284
N         -0.61178        0.06359        0.06206
C         -2.65221        0.20373        0.06384
H         -2.61317        0.62811       -0.92002
H         -2.73274       -0.85305        0.20607
H         -2.66979        0.85803        0.91599
O          3.45173       -0.94780        0.00722
C          3.90670        0.30986        0.01608
O          3.19805        1.29188        0.03429
C          5.38632        0.37068        0.00121
C          6.17245       -0.77877       -0.02725
C          5.99287        1.62514        0.01610
C          7.54998       -0.66747       -0.04057
H          5.69873       -1.74771       -0.03888
C          7.37030        1.72864        0.00288
H          5.36544        2.50339        0.03803
C          8.14938        0.58258       -0.02551
H          8.16073       -1.55773       -0.06280
H          7.83864        2.70129        0.01457
H          9.22628        0.66298       -0.03599
C         -0.21861        1.46290        0.07955
H         -0.60186        1.92210        0.98936
H          0.85893        1.62563        0.04349
H         -0.66937        1.96305       -0.77625
I         -5.26902        0.33665       -0.04805
