42
tsb_conformer19.log	Energy: -706579.0448971
C         -0.98450        0.65914        1.28915
C         -1.66039        1.15174        0.00000
C         -0.98450        0.65916       -1.28915
C          0.54343        0.71893        1.15449
C          0.54342        0.71895       -1.15450
C          1.03607        2.12737        0.77404
C          1.03606        2.12739       -0.77403
H         -1.29951        1.29383        2.13088
H         -1.29952        1.29385       -2.13088
H          2.04197        2.30957        1.17428
H         -1.30207       -0.36416        1.52311
H         -1.61525        2.25017        0.00001
H         -1.30207       -0.36415       -1.52312
H          1.01687        0.33714        2.07128
H          1.01687        0.33718       -2.07130
H          0.38277        2.90151        1.19989
H          2.04196        2.30960       -1.17427
H          0.38276        2.90153       -1.19986
N          0.99009       -0.09453       -0.00001
C          2.95212       -0.21890       -0.00001
H          2.98904       -0.76433        0.93827
H          2.98905       -0.76436       -0.93825
H          3.16301        0.84235       -0.00002
O         -3.07074        0.91346        0.00000
C         -3.55788       -0.33219       -0.00000
O         -2.87081       -1.32678       -0.00001
C         -5.04843       -0.35636        0.00000
C         -5.68190       -1.60402        0.00000
C         -5.81244        0.81633        0.00000
C         -7.07109       -1.67883        0.00001
H         -5.06656       -2.50541        0.00000
C         -7.20226        0.73684        0.00001
H         -5.31135        1.78469        0.00000
C         -7.83120       -0.50859        0.00001
H         -7.56444       -2.65275        0.00001
H         -7.79904        1.65111        0.00001
H         -8.92186       -0.56748        0.00001
C          0.57682       -1.49712       -0.00003
H         -0.51378       -1.63262       -0.00002
H          0.99466       -1.98856       -0.88980
H          0.99467       -1.98858        0.88972
I          5.65026       -0.44851        0.00001
