42
-60.34456896
C          1.23627       -0.07722        1.51432
C          2.03868       -0.54868        0.29973
C          1.37451       -0.15716       -1.02750
C         -0.26489       -0.31598        1.30477
C         -0.13949       -0.39105       -0.96991
C         -0.53474       -1.78977        0.96763
C         -0.44372       -1.84171       -0.56844
H          1.56925       -0.61429        2.40332
H          1.80758       -0.75328       -1.83189
H         -1.52123       -2.08827        1.31762
H          1.43716        0.98128        1.68313
H          2.16797       -1.63728        0.32651
H          1.59282        0.89030       -1.24354
H         -0.81521        0.02114        2.18683
H         -0.59162       -0.11502       -1.92560
H          0.19299       -2.44108        1.44660
H         -1.38005       -2.17599       -1.01143
H          0.33923       -2.51322       -0.91357
N         -0.75140        0.37899        0.11366
C         -2.78130        0.24490        0.01184
H         -2.83916        0.77070        0.94233
H         -2.79476        0.80884       -0.90157
H         -2.77818       -0.82663        0.00731
O          3.34022        0.03937        0.39091
C          4.33119       -0.59485       -0.25691
O          4.15802       -1.60399       -0.89742
C          5.64031        0.07560       -0.09108
C          5.78878        1.22400        0.68261
C          6.74701       -0.47433       -0.73470
C          7.03351        1.81190        0.80696
H          4.92987        1.64489        1.18144
C          7.98814        0.11853       -0.60597
H          6.60938       -1.36519       -1.32857
C          8.13190        1.26179        0.16452
H          7.15012        2.70213        1.40708
H          8.84491       -0.30865       -1.10500
H          9.10201        1.72549        0.26555
C         -0.55179        1.81519        0.07683
H         -1.08528        2.26852        0.91107
H          0.49479        2.11769        0.13654
H         -0.96568        2.20580       -0.85155
I         -5.42764        0.11094       -0.12237
