42
-60.34470108
C          1.32264        0.41142        1.01107
C          2.03978       -0.54773        0.05086
C          1.28662       -0.72225       -1.26963
C         -0.18722        0.14597        1.01880
C         -0.22189       -0.86155       -1.02576
C         -0.46862       -1.32985        1.33825
C         -0.50640       -2.00747       -0.04378
H          1.72457        0.27558        2.01605
H          1.65473       -1.60978       -1.78581
H         -1.41642       -1.43967        1.86237
H          1.52984        1.44075        0.71278
H          2.17077       -1.51715        0.54636
H          1.49460        0.13370       -1.91257
H         -0.67909        0.82956        1.71502
H         -0.73609       -0.98948       -1.98160
H          0.30682       -1.74272        1.97963
H         -1.48130       -2.44868       -0.24321
H          0.23576       -2.79725       -0.13682
N         -0.75481        0.30353       -0.32085
C         -2.78289        0.19747       -0.24902
H         -2.72909       -0.70366        0.31840
H         -2.87809        1.14093        0.25493
H         -2.84542        0.16019       -1.32045
O          3.34367       -0.04715       -0.26116
C          4.30910       -0.28627        0.64148
O          4.11174       -0.88187        1.67342
C          5.62332        0.25323        0.22611
C          6.70607        0.08189        1.08622
C          5.79946        0.91652       -0.98569
C          7.95089        0.56919        0.73780
H          6.54721       -0.43595        2.01995
C          7.04767        1.40174       -1.32770
H          4.95907        1.04473       -1.64979
C          8.12217        1.22952       -0.46885
H          8.78911        0.43553        1.40496
H          7.18568        1.91604       -2.26722
H          9.09512        1.61075       -0.74156
C         -0.55563        1.59135       -0.95855
H          0.49187        1.84443       -1.12984
H         -1.06822        1.59183       -1.91938
H         -0.99423        2.36637       -0.33199
I         -5.41065       -0.02389       -0.10140
