42
-60.34317707
C          1.31319       -0.76475        1.25359
C          2.05330       -0.57417       -0.07200
C          1.32460        0.39533       -1.01267
C         -0.19607       -0.91080        1.01931
C         -0.18495        0.12923       -1.01012
C         -0.48040       -2.04251        0.02079
C         -0.47563       -1.33963       -1.34901
H          1.69103       -1.65443        1.75886
H          1.71645        0.27297       -2.02332
H         -1.44476       -2.50257        0.22740
H          1.52092        0.08729        1.90183
H          2.18022       -1.53712       -0.58101
H          1.53382        1.42119       -0.70364
H         -0.70434       -1.05571        1.97576
H         -0.68145        0.82439       -1.69141
H          0.27472       -2.82262        0.08725
H         -1.43895       -1.43440       -1.84620
H          0.28120       -1.74251       -2.01825
N         -0.73999        0.26259        0.33690
C         -2.75882        0.13694        0.25732
H         -2.86996        0.24791        1.31583
H         -2.78377        1.02237       -0.34100
H         -2.83364       -0.83277       -0.19364
O          3.35950       -0.07569        0.23296
C          4.31348       -0.29376       -0.68742
O          4.10278       -0.86752       -1.72901
C          5.63214        0.23937       -0.27852
C          6.69859        0.10674       -1.16546
C          5.82852        0.85846        0.95341
C          7.94722        0.58910       -0.82388
H          6.52421       -0.37742       -2.11437
C          7.08059        1.33843        1.28867
H          5.00088        0.95617        1.63838
C          8.13870        1.20524        0.40295
H          8.77269        0.48580       -1.51197
H          7.23449        1.81800        2.24394
H          9.11473        1.58223        0.67049
C         -0.55138        1.54067        0.99515
H          0.49582        1.81475        1.13138
H         -1.03243        2.31865        0.40417
H         -1.02544        1.50745        1.97494
I         -5.43324        0.02866        0.15280
