42
-60.34498632
C          1.37937       -0.14252        0.99981
C          2.02781       -0.50022       -0.34443
C          1.21349        0.00603       -1.53689
C         -0.13653       -0.36848        0.95444
C         -0.28455       -0.24407       -1.31658
C         -0.45509       -1.80810        0.52654
C         -0.53934       -1.72778       -1.00879
H          1.81895       -0.76134        1.78324
H          1.53920       -0.50308       -2.44485
H         -1.39885       -2.13562        0.95880
H          1.60428        0.89801        1.24140
H          2.15296       -1.58817       -0.40105
H          1.40893        1.06997       -1.67475
H         -0.57403       -0.11056        1.92197
H         -0.84893        0.11012       -2.18286
H          0.31762       -2.49560        0.86307
H         -1.51830       -2.03665       -1.37155
H          0.19983       -2.36002       -1.49588
N         -0.75756        0.42468       -0.10576
C         -2.80132        0.29515        0.03274
H         -2.74275       -0.74874       -0.17599
H         -2.78925        0.65883        1.04358
H         -2.98321        0.98213       -0.77038
O          3.33091        0.08505       -0.43378
C          4.32530       -0.56988        0.18720
O          4.15411       -1.59400        0.80412
C          5.63626        0.09797        0.02450
C          5.78511        1.25819       -0.73121
C          6.74442       -0.46746        0.65197
C          7.03177        1.84243       -0.85375
H          4.92503        1.69082       -1.21785
C          7.98738        0.12200        0.52543
H          6.60640       -1.36746        1.23180
C          8.13157        1.27709       -0.22713
H          7.14881        2.74171       -1.44014
H          8.84524       -0.31708        1.01213
H          9.10314        1.73809       -0.32657
C         -0.56056        1.86014       -0.04124
H          0.48682        2.16674       -0.06084
H         -1.06639        2.32332       -0.88698
H         -1.00821        2.23536        0.87781
I         -5.41305        0.03790        0.19709
