42
-60.34428203
C          1.23223       -0.06979        1.54044
C          2.03091       -0.53538        0.32101
C          1.36402       -0.13586       -1.00260
C         -0.26937       -0.30662        1.33268
C         -0.15032       -0.36577       -0.94342
C         -0.53944       -1.77815        0.98535
C         -0.45893       -1.81795       -0.55164
H          1.56704       -0.61224        2.42548
H          1.79338       -0.72952       -1.81082
H         -1.52244       -2.08240        1.34020
H          1.43438        0.98756        1.71476
H          2.15905       -1.62426        0.34131
H          1.58529        0.91178       -1.21474
H         -0.81915        0.02473        2.21711
H         -0.60286       -0.08164       -1.89653
H          0.19305       -2.43173        1.45388
H         -1.40023       -2.14317       -0.99071
H          0.31814       -2.49064       -0.90758
N         -0.75670        0.39852        0.14747
C         -2.77152        0.26961        0.04277
H         -2.89720        0.84975        0.93751
H         -2.76453        0.77239       -0.90184
H         -2.78184       -0.79873        0.08096
O          3.33326        0.05074        0.41133
C          4.32213       -0.58332       -0.24021
O          4.14604       -1.59101       -0.88214
C          5.63230        0.08548       -0.07683
C          5.78317        1.23573        0.69366
C          6.73753       -0.46762       -0.72030
C          7.02879        1.82239        0.81483
H          4.92542        1.65918        1.19234
C          7.97958        0.12392       -0.59459
H          6.59800       -1.35985       -1.31167
C          8.12570        1.26914        0.17254
H          7.14725        2.71418        1.41226
H          8.83519       -0.30575       -1.09345
H          9.09648        1.73196        0.27103
C         -0.55339        1.83464        0.12203
H         -1.06857        2.27973        0.97193
H          0.49509        2.13303        0.16409
H         -0.98498        2.23680       -0.79329
I         -5.41383        0.08223       -0.16495
