42
-60.34349723
C          1.37566       -0.18243        0.98671
C          2.02716       -0.54168       -0.35611
C          1.21223       -0.04335       -1.55185
C         -0.13904       -0.41197        0.94033
C         -0.28557       -0.29217       -1.33220
C         -0.45256       -1.85321        0.51396
C         -0.54194       -1.77466       -1.02113
H          1.81508       -0.79975        1.77146
H          1.53780       -0.55903       -2.45613
H         -1.39236       -2.18683        0.95014
H          1.59950        0.85833        1.22789
H          2.15741       -1.62926       -0.40889
H          1.40904        1.01915       -1.69814
H         -0.57909       -0.15384        1.90654
H         -0.84890        0.06031       -2.19972
H          0.32515       -2.53617        0.84821
H         -1.52286       -2.08161       -1.37999
H          0.19439       -2.40896       -1.50975
N         -0.75915        0.38119       -0.12240
C         -2.75478        0.25688        0.00919
H         -2.73111       -0.79959       -0.14346
H         -2.74445        0.67225        0.99893
H         -2.94390        0.89444       -0.83151
O          3.32690        0.04971       -0.44618
C          4.32348       -0.59656        0.18185
O          4.15441       -1.61715        0.80496
C          5.63116        0.07652        0.01806
C          5.77618        1.23209       -0.74560
C          6.74044       -0.47862        0.65283
C          7.02007        1.82199       -0.86868
H          4.91537        1.65669       -1.23799
C          7.98061        0.11653        0.52569
H          6.60550       -1.37511        1.23879
C          8.12094        1.26696       -0.23472
H          7.13411        2.71761       -1.46120
H          8.83930       -0.31444        1.01808
H          9.09033        1.73238       -0.33458
C         -0.55288        1.81654       -0.06183
H         -1.06588        2.28214       -0.90183
H         -0.98669        2.19662        0.86176
H          0.49597        2.11405       -0.09424
I         -5.41264        0.10567        0.22054
