42
-60.34616756
C          1.38003       -0.71779        1.28656
C          2.04616       -1.22068       -0.00160
C          1.35947       -0.68693       -1.26626
C         -0.14859       -0.76258        1.15974
C         -0.16706       -0.73097       -1.11720
C         -0.62136       -2.17265        0.77465
C         -0.64168       -2.14837       -0.76444
H          1.69724       -1.34217        2.12390
H          1.66139       -1.29222       -2.12305
H         -1.61053       -2.37270        1.18288
H          1.70346        0.30087        1.49595
H          2.01792       -2.31572       -0.01486
H          1.68217        0.33554       -1.45761
H         -0.60146       -0.40669        2.08843
H         -0.63081       -0.34863       -2.02991
H          0.05118       -2.93218        1.16800
H         -1.64404       -2.32351       -1.15110
H          0.01227       -2.90126       -1.19956
N         -0.60500        0.05313        0.03587
C         -2.64021        0.19527        0.04309
H         -2.61144        0.68394       -0.91001
H         -2.73231       -0.86824        0.10213
H         -2.64640        0.79216        0.93621
O          3.45686       -0.95776       -0.01013
C          3.91005        0.30061        0.00181
O          3.19961        1.28137        0.02062
C          5.38943        0.36421       -0.01070
C          5.99334        1.61990        0.00981
C          6.17795       -0.78351       -0.04251
C          7.37055        1.72633       -0.00099
H          5.36404        2.49674        0.03427
C          7.55526       -0.66926       -0.05348
H          5.70625       -1.75338       -0.05860
C          8.15203        0.58198       -0.03269
H          7.83683        2.69990        0.01518
H          8.16793       -1.55812       -0.07837
H          9.22876        0.66467       -0.04135
C         -0.20978        1.45195        0.05303
H         -0.60686        1.91643        0.95418
H          0.86849        1.61197        0.03325
H         -0.64522        1.94921       -0.81226
I         -5.27885        0.35433       -0.01100
