42
tsb_conformer3.log	Energy: -706579.0446587
C          0.98449        0.65912       -1.28915
C          1.66039        1.15173       -0.00002
C          0.98451        0.65917        1.28915
C         -0.54343        0.71892       -1.15448
C         -0.54341        0.71898        1.15451
C         -1.03606        2.12737       -0.77405
C         -1.03604        2.12742        0.77402
H          1.29950        1.29380       -2.13090
H          1.29954        1.29388        2.13087
H         -2.04197        2.30957       -1.17428
H          1.30206       -0.36419       -1.52310
H          1.61526        2.25017       -0.00004
H          1.30208       -0.36413        1.52313
H         -1.01689        0.33713       -2.07127
H         -1.01685        0.33723        2.07132
H         -0.38277        2.90150       -1.19993
H         -2.04193        2.30965        1.17427
H         -0.38272        2.90156        1.19983
N         -0.99010       -0.09452        0.00004
C         -2.95214       -0.21889        0.00003
H         -2.98905       -0.76436        0.93827
H         -3.16304        0.84235        0.00005
H         -2.98904       -0.76431       -0.93825
O          3.07075        0.91345       -0.00002
C          3.55788       -0.33220       -0.00001
O          2.87081       -1.32679        0.00001
C          5.04843       -0.35637       -0.00001
C          5.68190       -1.60403       -0.00001
C          5.81244        0.81632       -0.00000
C          7.07110       -1.67883       -0.00001
H          5.06657       -2.50541       -0.00001
C          7.20226        0.73684       -0.00000
H          5.31134        1.78468        0.00000
C          7.83120       -0.50859       -0.00001
H          7.56445       -2.65275       -0.00001
H          7.79903        1.65111        0.00000
H          8.92186       -0.56748       -0.00001
C         -0.57684       -1.49711        0.00007
H         -0.99464       -1.98853        0.88987
H         -0.99473       -1.98859       -0.88965
H          0.51376       -1.63262        0.00002
I         -5.65026       -0.44851       -0.00001
