42
-60.34530771
C          1.37377       -0.16382        1.02379
C          2.01834       -0.52268       -0.32227
C          1.19884       -0.02131       -1.51313
C         -0.14018       -0.40111        0.98150
C         -0.29995       -0.26125       -1.28756
C         -0.44148       -1.84208        0.54210
C         -0.57103       -1.74290       -0.98890
H          1.82029       -0.77771        1.80722
H          1.51697       -0.53820       -2.41939
H         -1.36125       -2.20481        0.99806
H          1.59236        0.87892        1.26099
H          2.14602       -1.61037       -0.37820
H          1.40017        1.04029       -1.66058
H         -0.58007       -0.15449        1.95100
H         -0.86160        0.10287       -2.15147
H          0.35722       -2.51494        0.84629
H         -1.56917       -2.02239       -1.32140
H          0.13904       -2.38444       -1.50599
N         -0.76835        0.39977       -0.07008
C         -2.79331        0.27533        0.04409
H         -2.92344        0.74214       -0.91685
H         -2.71100       -0.78352        0.14686
H         -2.81529        0.86855        0.93623
O          3.31959        0.06571       -0.41744
C          4.31697       -0.58431        0.20409
O          4.14946       -1.60688        0.82462
C          5.62576        0.08664        0.03750
C          5.76975        1.24737       -0.71837
C          6.73697       -0.47611        0.66202
C          7.01462        1.83475       -0.84401
H          4.90736        1.67803       -1.20266
C          7.97813        0.11643        0.53233
H          6.60267       -1.37649        1.24213
C          8.11746        1.27203       -0.22038
H          7.12790        2.73447       -1.43046
H          8.83832       -0.32059        1.01673
H          9.08761        1.73549       -0.32221
C         -0.56299        1.83424        0.00318
H         -0.93649        2.19575        0.96001
H          0.48030        2.13955       -0.09148
H         -1.13214        2.31152       -0.79322
I         -5.39546        0.07473        0.15687
