42
-60.34377544
C          1.29823       -0.77836        1.21979
C          2.04533       -0.59623       -0.10302
C          1.31953        0.36301       -1.05662
C         -0.21094       -0.92234        0.98380
C         -0.18846        0.08813       -1.05923
C         -0.49942       -2.06725        0.00225
C         -0.46010       -1.38959       -1.37972
H          1.67140       -1.66670        1.73097
H          1.71828        0.23328       -2.06366
H         -1.47676       -2.50286        0.20224
H          1.50668        0.07553        1.86533
H          2.17817       -1.56352       -0.60226
H          1.52199        1.39226       -0.75505
H         -0.71741       -1.05416        1.94338
H         -0.68788        0.76946       -1.75226
H          0.23932       -2.86021        0.09494
H         -1.40426       -1.50689       -1.90893
H          0.32079       -1.79759       -2.01758
N         -0.75361        0.24110        0.28285
C         -2.76898        0.12638        0.22553
H         -2.72410       -0.73250       -0.41392
H         -2.75239        0.01961        1.29218
H         -2.90568        1.09961       -0.20089
O          3.34844       -0.09180        0.20544
C          4.30782       -0.31456       -0.70805
O          4.10435       -0.89768       -1.74593
C          5.62277        0.22602       -0.29699
C          6.69401        0.08934       -1.17752
C          5.81110        0.85601        0.93065
C          7.93941        0.57851       -0.83387
H          6.52582       -0.40330       -2.12318
C          7.05999        1.34272        1.26804
H          4.97977        0.95685        1.61068
C          8.12288        1.20550        0.38867
H          8.76858        0.47210       -1.51702
H          7.20767        1.83073        2.22001
H          9.09638        1.58786        0.65782
C         -0.55530        1.52958        0.92021
H          0.49152        1.77783        1.10056
H         -0.98467        2.30482        0.28768
H         -1.07690        1.53482        1.87626
I         -5.41655        0.06652        0.21486
