42
tsb_conformer14.log	Energy: -706579.0452988
C          0.98448        0.65907       -1.28913
C          1.66040        1.15174       -0.00003
C          0.98453        0.65925        1.28917
C         -0.54344        0.71890       -1.15445
C         -0.54339        0.71905        1.15453
C         -1.03605        2.12737       -0.77409
C         -1.03601        2.12748        0.77399
H          1.29949        1.29371       -2.13091
H          1.29957        1.29400        2.13085
H         -2.04197        2.30955       -1.17432
H          1.30204       -0.36425       -1.52303
H          1.61527        2.25018       -0.00010
H          1.30209       -0.36404        1.52321
H         -1.01690        0.33706       -2.07122
H         -1.01683        0.33735        2.07137
H         -0.38276        2.90148       -1.20000
H         -2.04190        2.30973        1.17424
H         -0.38269        2.90164        1.19976
N         -0.99009       -0.09449        0.00011
C         -2.95213       -0.21889        0.00007
H         -2.98910       -0.76421        0.93840
H         -3.16303        0.84235       -0.00006
H         -2.98900       -0.76446       -0.93812
O          3.07076        0.91345       -0.00004
C          3.55788       -0.33220        0.00003
O          2.87081       -1.32679        0.00010
C          5.04843       -0.35638       -0.00001
C          5.81245        0.81631       -0.00002
C          5.68190       -1.60404       -0.00002
C          7.20227        0.73682       -0.00005
H          5.31135        1.78467       -0.00001
C          7.07110       -1.67885       -0.00006
H          5.06656       -2.50542       -0.00001
C          7.83120       -0.50861       -0.00007
H          7.79904        1.65109       -0.00006
H          7.56444       -2.65277       -0.00007
H          8.92186       -0.56750       -0.00010
C         -0.57683       -1.49709        0.00019
H         -0.99470       -1.98860       -0.88953
H          0.51377       -1.63259        0.00018
H         -0.99466       -1.98847        0.89000
I         -5.65027       -0.44853       -0.00004
