42
-60.34577939
C          1.30767       -0.76568        1.23834
C          2.04923       -0.57785       -0.08660
C          1.32002        0.38706       -1.03125
C         -0.20147       -0.91436        1.00284
C         -0.18889        0.11487       -1.02995
C         -0.48253       -2.05242        0.01054
C         -0.46940       -1.35765       -1.36340
H          1.68629       -1.65312        1.74703
H          1.71456        0.26375       -2.04073
H         -1.44905       -2.50917        0.21550
H          1.51291        0.08884        1.88409
H          2.17824       -1.54233       -0.59217
H          1.52417        1.41433       -0.72372
H         -0.70851       -1.05682        1.96056
H         -0.68712        0.80420       -1.71613
H          0.27080       -2.83350        0.08572
H         -1.42678       -1.46185       -1.87063
H          0.29598       -1.76018       -2.02310
N         -0.75051        0.25237        0.31384
C         -2.79933        0.12941        0.24443
H         -2.81792        0.14965        1.31793
H         -2.81101        1.03772       -0.32770
H         -2.78687       -0.81175       -0.26230
O          3.35490       -0.07738        0.21898
C          4.30972       -0.29492       -0.69981
O          4.10143       -0.86837       -1.74219
C          5.62831        0.23702       -0.28811
C          6.69613        0.10487       -1.17339
C          5.82331        0.85327        0.94541
C          7.94484        0.58472       -0.82855
H          6.52278       -0.37723       -2.12354
C          7.07549        1.33064        1.28403
H          4.99446        0.95089        1.62893
C          8.13504        1.19778        0.40000
H          8.77147        0.48149       -1.51528
H          7.22832        1.80802        2.24060
H          9.11121        1.57249        0.67026
C         -0.56149        1.53452        0.96448
H         -1.02740        2.31049        0.35896
H         -1.05222        1.51363        1.93645
H          0.48493        1.80434        1.11650
I         -5.42222        0.04145        0.18067
