42
-60.34474252
C          1.37800       -0.70586        1.31873
C          2.04116       -1.21506        0.03119
C          1.35178       -0.68696       -1.23457
C         -0.15049       -0.75230        1.19482
C         -0.17430       -0.72328       -1.08293
C         -0.61919       -2.16466        0.81108
C         -0.65824       -2.13639       -0.72754
H          1.69679       -1.32682        2.15802
H          1.64825       -1.29940       -2.08815
H         -1.60078       -2.37748        1.23143
H          1.70236        0.31345        1.52321
H          2.01250       -2.31012        0.02262
H          1.67886        0.33241       -1.43470
H         -0.60354       -0.39556        2.12308
H         -0.63639       -0.33957       -1.99576
H          0.06446       -2.91980        1.19370
H         -1.66792       -2.29775       -1.10074
H         -0.01823       -2.89529       -1.17271
N         -0.60648        0.06490        0.07050
C         -2.61018        0.21074        0.06511
H         -2.60977        0.60478       -0.93263
H         -2.68782       -0.83657        0.26102
H         -2.66309        0.89552        0.88906
O          3.45160       -0.95264        0.01839
C          3.90500        0.30595        0.02184
O          3.19384        1.28635        0.03597
C          5.38399        0.36989        0.00582
C          6.17300       -0.77795       -0.00483
C          5.98733        1.62607        0.00137
C          7.55022       -0.66328       -0.01977
H          5.70178       -1.74817       -0.00124
C          7.36445        1.73286       -0.01377
H          5.35769        2.50296        0.00983
C          8.14640        0.58842       -0.02433
H          8.16329       -1.55215       -0.02797
H          7.83028        2.70675       -0.01738
H          9.22307        0.67141       -0.03613
C         -0.20263        1.46205        0.08543
H          0.87565        1.61572        0.04299
H         -0.65512        1.96490       -0.76772
H         -0.57704        1.92412        0.99737
I         -5.27331        0.33858       -0.06208
