42
-60.34490335
C          1.22568       -0.09635        1.51496
C          2.03248       -0.57169        0.30485
C          1.36911       -0.19023       -1.02567
C         -0.27333       -0.34683        1.30343
C         -0.14373       -0.43173       -0.97058
C         -0.52985       -1.82473        0.97276
C         -0.44139       -1.88212       -0.56334
H          1.56051       -0.62514        2.40823
H          1.80692       -0.78840       -1.82598
H         -1.51198       -2.13296        1.32688
H          1.41929        0.96456        1.67665
H          2.16507       -1.65975        0.33779
H          1.58279        0.85708       -1.24688
H         -0.82937       -0.00944        2.18169
H         -0.59386       -0.16271       -1.92931
H          0.20557       -2.46672        1.45261
H         -1.37731       -2.22159       -1.00347
H          0.34352       -2.55185       -0.90749
N         -0.76260        0.33969        0.10812
C         -2.78204        0.20229        0.00145
H         -2.75952        0.69227       -0.95163
H         -2.75663       -0.86732        0.04502
H         -2.90740        0.77439        0.89953
O          3.33243        0.02008        0.39486
C          4.32343       -0.61218       -0.25489
O          4.15035       -1.62081       -0.89633
C          5.63226        0.05907       -0.09078
C          5.78538        1.19610        0.69860
C          6.73426       -0.47921       -0.75212
C          7.03016        1.78440        0.82071
H          4.93020        1.60758        1.21151
C          7.97530        0.11431       -0.62598
H          6.59299       -1.36161       -1.35766
C          8.12376        1.24627        0.16017
H          7.15062        2.66560        1.43326
H          8.82830       -0.30359       -1.13911
H          9.09385        1.71040        0.25936
C         -0.56926        1.77694        0.06670
H          0.47630        2.08442        0.11532
H         -0.99489        2.16443       -0.85766
H         -1.09673        2.22824        0.90566
I         -5.41369        0.16484       -0.12048
