42
-60.34543637
C          1.36621       -0.73654        1.25445
C          2.03771       -1.24169       -0.03014
C          1.35325       -0.71419       -1.29887
C         -0.16188       -0.78069        1.12418
C         -0.17322       -0.76594       -1.15295
C         -0.63698       -2.19228        0.74899
C         -0.63526       -2.18579       -0.79048
H          1.67984       -1.35997        2.09386
H          1.66036       -1.32108       -2.15271
H         -1.63385       -2.37914        1.14465
H          1.69002        0.28185        1.46441
H          2.01240       -2.33686       -0.03928
H          1.67214        0.30894       -1.49256
H         -0.61484       -0.41818        2.05025
H         -0.63908       -0.39317       -2.06857
H          0.02474       -2.95149        1.16077
H         -1.62789       -2.38450       -1.19144
H          0.03655       -2.93370       -1.20670
N         -0.61710        0.02696       -0.00686
C         -2.62914        0.17602        0.01377
H         -2.63490        0.75282       -0.89058
H         -2.67898       -0.88507       -0.07578
H         -2.61884        0.64890        0.98128
O          3.44761       -0.97545       -0.03489
C          3.89789        0.28410       -0.02488
O          3.18474        1.26299       -0.01208
C          5.37700        0.35124       -0.03044
C          5.97780        1.60844       -0.00988
C          6.16838       -0.79471       -0.05523
C          7.35479        1.71808       -0.01361
H          5.34633        2.48385        0.00902
C          7.54544       -0.67721       -0.05914
H          5.69909       -1.76575       -0.07142
C          8.13912        0.57550       -0.03823
H          7.81867        2.69278        0.00266
H          8.16033       -1.56467       -0.07852
H          9.21568        0.66072       -0.04118
C         -0.21601        1.42518       -0.00003
H          0.86261        1.58164        0.00827
H         -0.62436        1.91008       -0.88516
H         -0.63830        1.90489        0.88138
I         -5.26038        0.39398        0.04414
