42
-60.34645633
C          1.37884       -0.74652        1.24749
C          2.05113       -1.25170       -0.03632
C          1.36736       -0.72338       -1.30471
C         -0.14938       -0.79353        1.11668
C         -0.15949       -0.77597       -1.16018
C         -0.62389       -2.20463        0.73938
C         -0.62519       -2.19479       -0.79996
H          1.69428       -1.36752        2.08800
H          1.67641       -1.32797       -2.15943
H         -1.62039       -2.39145        1.13545
H          1.69958        0.27349        1.45479
H          2.02594       -2.34687       -0.04597
H          1.68447        0.30100       -1.49527
H         -0.60285       -0.43237        2.04314
H         -0.62412       -0.40145       -2.07570
H          0.03836       -2.96471        1.14869
H         -1.62045       -2.38512       -1.19758
H          0.04173       -2.94507       -1.21971
N         -0.60509        0.01246       -0.01353
C         -2.65426        0.14485        0.00289
H         -2.61457        0.61536        0.96565
H         -2.64905        0.72761       -0.89935
H         -2.77827       -0.91553       -0.05509
O          3.46114       -0.98468       -0.03995
C          3.91054        0.27508       -0.03016
O          3.19736        1.25391       -0.01859
C          5.38987        0.34271       -0.03464
C          5.99028        1.60017       -0.02275
C          6.18164       -0.80310       -0.04979
C          7.36725        1.71023       -0.02574
H          5.35850        2.47548       -0.01115
C          7.55869       -0.68524       -0.05276
H          5.71259       -1.77434       -0.05909
C          8.15197        0.56776       -0.04067
H          7.83084        2.68518       -0.01637
H          8.17385       -1.57265       -0.06446
H          9.22852        0.65329       -0.04293
C         -0.22162        1.41399       -0.00483
H         -0.64698        1.88787        0.87836
H          0.85581        1.58159        0.00167
H         -0.63654        1.89610       -0.88849
I         -5.27954        0.41639        0.05613
