42
-60.34567997
C          1.30766       -0.76948        1.23079
C          2.05162       -0.58437       -0.09324
C          1.32555        0.38001       -1.04103
C         -0.20198       -0.91327        0.99482
C         -0.18361        0.10903       -1.04152
C         -0.48779       -2.05339        0.00640
C         -0.46283       -1.36502       -1.37063
H          1.68265       -1.65809        1.74011
H          1.72200        0.25458       -2.04950
H         -1.45943       -2.50025        0.20928
H          1.51534        0.08436        1.87669
H          2.18102       -1.54990       -0.59672
H          1.53007        1.40749       -0.73451
H         -0.70943       -1.05058        1.95308
H         -0.68134        0.79624       -1.73010
H          0.25847       -2.84054        0.08833
H         -1.41503       -1.47262       -1.88713
H          0.30833       -1.77079       -2.02161
N         -0.74577        0.25289        0.30128
C         -2.79944        0.13693        0.23764
H         -2.75526       -0.77175       -0.32552
H         -2.81727        0.10161        1.30992
H         -2.85853        1.07907       -0.27240
O          3.35696       -0.08376        0.21364
C          4.31412       -0.30591       -0.70157
O          4.10915       -0.88636       -1.74072
C          5.63066        0.23192       -0.29085
C          6.69860        0.10400       -1.17659
C          5.82324        0.85096        0.94166
C          7.94486        0.59141       -0.83350
H          6.52719       -0.38036       -2.12595
C          7.07301        1.33575        1.27861
H          4.99445        0.94476        1.62578
C          8.13256        1.20760        0.39387
H          8.77145        0.49204       -1.52086
H          7.22398        1.81517        2.23444
H          9.10673        1.58854        0.66261
C         -0.55378        1.53699        0.94730
H         -1.06093        1.52668        1.91099
H          0.49273        1.79748        1.11496
H         -1.00175        2.31345        0.32912
I         -5.42663        0.04608        0.19406
