42
-60.34501645
C          1.37236       -0.71827        1.23252
C          2.04567       -1.21916       -0.05270
C          1.36605       -0.68302       -1.32045
C         -0.15559       -0.75442        1.09946
C         -0.16079       -0.73232       -1.17821
C         -0.64098       -2.16049        0.71852
C         -0.62622       -2.15240       -0.82076
H          1.68101       -1.34734        2.06955
H          1.67434       -1.28561       -2.17686
H         -1.64397       -2.33470        1.10383
H          1.70023        0.29760        1.44875
H          2.01730       -2.31418       -0.06715
H          1.68734        0.34069       -1.50703
H         -0.60656       -0.39257        2.02680
H         -0.62510       -0.35479       -2.09253
H          0.00846       -2.92735        1.13552
H         -1.61524       -2.35150       -1.23000
H          0.04913       -2.89985       -1.23206
N         -0.60369        0.05827       -0.03022
C         -2.61829        0.20272       -0.00515
H         -2.71090       -0.84567       -0.18058
H         -2.57230        0.58915        0.99641
H         -2.67794        0.87437       -0.84139
O          3.45616       -0.95635       -0.05214
C          3.90916        0.30225       -0.03782
O          3.19790        1.28256       -0.02425
C          5.38832        0.36638       -0.04111
C          5.99157        1.62254       -0.05178
C          6.17748       -0.78136       -0.03329
C          7.36877        1.72940       -0.05541
H          5.36181        2.49937       -0.05747
C          7.55478       -0.66663       -0.03621
H          5.70630       -1.75157       -0.02436
C          8.15088        0.58505       -0.04751
H          7.83455        2.70329       -0.06430
H          8.16795       -1.55546       -0.02961
H          9.22761        0.66810       -0.05004
C         -0.20409        1.45638       -0.01940
H          0.87449        1.61216        0.00677
H         -0.59684        1.93861       -0.91296
H         -0.64155        1.93831        0.85348
I         -5.28022        0.34828        0.08097
