42
-60.34464783
C          1.29000       -0.71323        1.22023
C          2.03588       -0.53023       -0.10317
C          1.31457        0.43800       -1.05093
C         -0.21984       -0.84937        0.98410
C         -0.19555        0.17412       -1.05267
C         -0.51160       -1.98696       -0.00528
C         -0.48171       -1.29846       -1.38202
H          1.65998       -1.60479        1.72804
H          1.71076        0.31031       -2.05922
H         -1.48587       -2.42814        0.19660
H          1.50284        0.13792        1.86797
H          2.16129       -1.49584       -0.60754
H          1.52459        1.46451       -0.74492
H         -0.72870       -0.98433        1.94180
H         -0.69004        0.86390       -1.74092
H          0.23009       -2.77838        0.07685
H         -1.43365       -1.40174       -1.89970
H          0.28827       -1.70774       -2.03222
N         -0.75626        0.32146        0.29115
C         -2.77694        0.20713        0.23228
H         -2.81922        0.17151        1.30230
H         -2.86630        1.15727       -0.25999
H         -2.77101       -0.69113       -0.34490
O          3.34301       -0.03636        0.20609
C          4.29783       -0.25362       -0.71322
O          4.08719       -0.82096       -1.75840
C          5.61819        0.27087       -0.29833
C          6.68376        0.14688       -1.18754
C          5.81716        0.87246        0.94182
C          7.93405        0.62074       -0.84021
H          6.50731       -0.32371       -2.14288
C          7.07097        1.34368        1.28297
H          4.99029        0.96301        1.62871
C          8.12817        1.21936        0.39486
H          8.75873        0.52457       -1.53028
H          7.22702        1.80914        2.24486
H          9.10556        1.58943        0.66702
C         -0.55431        1.60440        0.93743
H         -1.06426        1.59919        1.89970
H          0.49405        1.85409        1.10762
H         -0.99286        2.38488        0.31753
I         -5.40367       -0.05842        0.21128
