42
-60.34691528
C          1.37769       -0.70107        1.28281
C          2.04786       -1.21942        0.00314
C          1.36411       -0.70138       -1.26932
C         -0.15057       -0.75378        1.15221
C         -0.16301       -0.74641       -1.12416
C         -0.61471       -2.17070        0.78097
C         -0.63704       -2.16060       -0.75829
H          1.69553       -1.31238        2.12953
H          1.66975       -1.31546       -2.11851
H         -1.60164       -2.37503        1.19276
H          1.69649        0.32185        1.47811
H          2.02004       -2.31456        0.00296
H          1.68519        0.31966       -1.47085
H         -0.60783       -0.39019        2.07584
H         -0.62374       -0.37474       -2.04288
H          0.06367       -2.92190        1.18033
H         -1.64042       -2.33767       -1.14151
H          0.01577       -2.91781       -1.18758
N         -0.60845        0.04756        0.01889
C         -2.66196        0.18545        0.01642
H         -2.61294        0.62960       -0.96001
H         -2.72285       -0.87666        0.13835
H         -2.64587        0.82226        0.87895
O          3.45868       -0.95662       -0.00467
C          3.91255        0.30141       -0.00814
O          3.20328        1.28309       -0.00469
C          5.39230        0.36290       -0.01728
C          6.17904       -0.78648       -0.01953
C          5.99828        1.61768       -0.02405
C          7.55657       -0.67483       -0.02857
H          5.70575       -1.75568       -0.01419
C          7.37572        1.72156       -0.03314
H          5.37043        2.49590       -0.02212
C          8.15540        0.57556       -0.03542
H          8.16775       -1.56507       -0.03032
H          7.84365        2.69448       -0.03847
H          9.23231        0.65626       -0.04256
C         -0.21852        1.44783        0.02234
H          0.85899        1.61290       -0.00504
H         -0.66145        1.93612       -0.84432
H         -0.61182        1.91808        0.92221
I         -5.28015        0.35999        0.00413
