42
-60.34641003
C          1.22791       -0.06893        1.52374
C          2.03089       -0.54582        0.31182
C          1.36614       -0.16153       -1.01694
C         -0.27202       -0.31821        1.31458
C         -0.14775       -0.39791       -0.95873
C         -0.52772       -1.79608        0.98166
C         -0.44997       -1.84840       -0.55524
H          1.56460       -0.59721        2.41662
H          1.80035       -0.76018       -1.81882
H         -1.50582       -2.10959        1.34280
H          1.42215        0.99217        1.68350
H          2.16026       -1.63429        0.34352
H          1.58227        0.88547       -1.23751
H         -0.82639        0.01719        2.19480
H         -0.59812       -0.12520       -1.91639
H          0.21313       -2.43731        1.45422
H         -1.39124       -2.18000       -0.99010
H          0.32879       -2.52123       -0.90719
N         -0.76434        0.37068        0.12255
C         -2.81497        0.23688        0.00871
H         -2.76653        0.69491       -0.96076
H         -2.74019       -0.82632        0.11828
H         -2.91880        0.86005        0.87489
O          3.33317        0.04172        0.40034
C          4.32081       -0.59112       -0.25298
O          4.14453       -1.59703       -0.89791
C          5.63211        0.07566       -0.08780
C          5.78939        1.20850        0.70671
C          6.73191       -0.46299       -0.75239
C          7.03616        1.79218        0.83093
H          4.93579        1.62024        1.22204
C          7.97497        0.12591       -0.62419
H          6.58744       -1.34209       -1.36197
C          8.12762        1.25357        0.16730
H          7.15981        2.67003        1.44766
H          8.82633       -0.29233       -1.13979
H          9.09933        1.71396        0.26826
C         -0.56921        1.80749        0.08429
H         -1.08023        2.25558        0.93517
H          0.47728        2.11574        0.11500
H         -1.01167        2.19931       -0.83041
I         -5.40938        0.11638       -0.13578
