42
-60.34428345
C          1.31714        0.33220        0.97947
C          2.04448       -0.63308        0.03330
C          1.29585       -0.82875       -1.28678
C         -0.19116        0.05988        0.98616
C         -0.21097       -0.98168       -1.04145
C         -0.47168       -1.41014        1.32903
C         -0.48069       -2.11463       -0.03993
H          1.71544        0.20987        1.98763
H          1.67414       -1.71754       -1.79337
H         -1.43091       -1.51029        1.83340
H          1.52074        1.35935        0.67127
H          2.18086       -1.59517        0.54154
H          1.49504        0.02306       -1.93786
H         -0.68576        0.75324        1.67075
H         -0.72479       -1.13098       -1.99443
H          0.29185       -1.80782        1.99374
H         -1.44231       -2.58401       -0.23952
H          0.28021       -2.88875       -0.11057
N         -0.75806        0.18999       -0.35710
C         -2.76694        0.07627       -0.26487
H         -2.76349        0.94119        0.36373
H         -2.85334        0.17149       -1.33132
H         -2.78162       -0.90007        0.17298
O          3.34553       -0.12696       -0.28096
C          4.30692       -0.33922        0.63302
O          4.10687       -0.91510        1.67557
C          5.61923        0.20345        0.21637
C          6.69082        0.08182        1.09867
C          5.80476        0.82111       -1.01795
C          7.93377        0.57384        0.75026
H          6.52482       -0.40147        2.04953
C          7.05125        1.31066       -1.36011
H          4.97321        0.91021       -1.69935
C          8.11446        1.18859       -0.47890
H          8.76318        0.47922        1.43486
H          7.19679        1.78911       -2.31726
H          9.08602        1.57320       -0.75177
C         -0.56838        1.46779       -1.01750
H          0.47828        1.74453       -1.15011
H         -1.03837        1.43194       -1.99913
H         -1.05440        2.24543       -0.43022
I         -5.41065        0.13575       -0.06676
