42
-60.34584634
C          1.23020       -0.09214        1.50390
C          2.03390       -0.55850        0.28845
C          1.36875       -0.16563       -1.03774
C         -0.27081       -0.33278        1.29333
C         -0.14414       -0.40818       -0.97962
C         -0.53866       -1.80726        0.95770
C         -0.43529       -1.86200       -0.57757
H          1.56350       -0.63138        2.39152
H          1.80501       -0.75687       -1.84405
H         -1.52885       -2.10303        1.30008
H          1.42916        0.96613        1.67634
H          2.16549       -1.64685        0.31326
H          1.58109        0.88375       -1.24998
H         -0.82029        0.00322        2.17651
H         -0.59815       -0.13604       -1.93575
H          0.18448       -2.45841        1.44377
H         -1.36249       -2.21226       -1.02828
H          0.35900       -2.52429       -0.91469
N         -0.76305        0.35904        0.10246
C         -2.81032        0.22955        0.00969
H         -2.70672       -0.83317       -0.09238
H         -2.82255        0.69902        0.97714
H         -2.78778        0.84212       -0.86906
O          3.33480        0.03137        0.38015
C          4.32826       -0.60645       -0.25953
O          4.15891       -1.62063       -0.89322
C          5.63650        0.06629       -0.09434
C          5.78038        1.22475        0.66499
C          6.74700       -0.49200       -0.72403
C          7.02437        1.81436        0.78891
H          4.91845        1.65224        1.15290
C          7.98740        0.10243       -0.59563
H          6.61281       -1.39061       -1.30691
C          8.12658        1.25584        0.16044
H          7.13742        2.71254        1.37777
H          8.84714       -0.33137       -1.08376
H          9.09610        1.72089        0.26110
C         -0.56066        1.79537        0.06541
H          0.48392        2.09996        0.14758
H         -0.95324        2.18316       -0.87341
H         -1.11331        2.25112        0.88585
I         -5.41737        0.13739       -0.10830
