42
-60.34369036
C          1.37613       -0.69047        1.29162
C          2.04077       -1.19726        0.00460
C          1.35438       -0.66471       -1.26047
C         -0.15284       -0.72899        1.16566
C         -0.17208       -0.70775       -1.10932
C         -0.63397       -2.13794        0.78877
C         -0.64326       -2.12500       -0.75038
H          1.69017       -1.31540        2.12977
H          1.65453       -1.27217       -2.11638
H         -1.62845       -2.32276        1.19077
H          1.70417        0.32681        1.50064
H          2.00985       -2.29224       -0.00605
H          1.67836        0.35684       -1.45433
H         -0.60126       -0.36869        2.09501
H         -0.63651       -0.33127       -2.02438
H          0.02867       -2.90044        1.19294
H         -1.64106       -2.30981       -1.14423
H          0.01818       -2.87731       -1.17515
N         -0.61573        0.08172        0.03948
C         -2.66085        0.21052        0.05746
H         -2.50914        0.78431        0.95428
H         -2.48977        0.76636       -0.83583
H         -2.77090       -0.85751        0.01210
O          3.45238       -0.93791       -0.00496
C          3.90905        0.31888        0.00444
O          3.20203        1.30217        0.02104
C          5.38885        0.37801       -0.00752
C          6.17392       -0.77219       -0.03307
C          5.99655        1.63191        0.00747
C          7.55159       -0.66216       -0.04334
H          5.69927       -1.74068       -0.04482
C          7.37409        1.73415       -0.00271
H          5.36986        2.51073        0.02712
C          8.15214        0.58733       -0.02813
H          8.16159       -1.55300       -0.06329
H          7.84329        2.70639        0.00911
H          9.22914        0.66672       -0.03615
C         -0.20749        1.47756        0.05011
H         -0.62612        1.97458       -0.82414
H         -0.60777        1.95498        0.94361
H          0.87202        1.62776        0.04081
I         -5.27329        0.31330       -0.02213
