42
-60.34352328
C          1.38072       -0.19756        0.96687
C          2.03739       -0.57351       -0.36850
C          1.22478       -0.09121       -1.57190
C         -0.13236       -0.43775        0.91887
C         -0.27298       -0.34355       -1.35510
C         -0.43648       -1.88513        0.50707
C         -0.53026       -1.82199       -1.02841
H          1.82214       -0.79919        1.76258
H          1.55579       -0.61414       -2.47001
H         -1.37334       -2.22011        0.94790
H          1.59624        0.84874        1.19131
H          2.16916       -1.66143       -0.40760
H          1.41699        0.97090       -1.72765
H         -0.57751       -0.17146        1.88051
H         -0.83269       -0.00218       -2.22948
H          0.34635       -2.55970        0.84633
H         -1.51483       -2.12615       -1.37856
H          0.20179       -2.46374       -1.51362
N         -0.75521        0.33791       -0.15433
C         -2.76546        0.18298       -0.02986
H         -2.75275        0.66546        0.92550
H         -2.88553        0.76255       -0.92267
H         -2.83745       -0.88502       -0.09888
O          3.33665        0.01872       -0.46104
C          4.33400       -0.62449        0.16863
O          4.16715       -1.64514        0.79227
C          5.64029        0.05177        0.00598
C          5.77819        1.22345       -0.73406
C          6.75528       -0.51606        0.61911
C          7.02072        1.81661       -0.85530
H          4.91283        1.65844       -1.20906
C          7.99421        0.08194        0.49326
H          6.62571       -1.42470        1.18729
C          8.12742        1.24850       -0.24347
H          7.12911        2.72514       -1.42892
H          8.85742       -0.35924        0.96842
H          9.09573        1.71648       -0.34188
C         -0.57128        1.77556       -0.10704
H         -1.00197        2.15761        0.81722
H          0.47340        2.08642       -0.15083
H         -1.09735        2.22818       -0.94620
I         -5.42586        0.17397        0.25680
