42
-60.34450970
C          1.36267       -0.71901        1.26757
C          2.03375       -1.22864       -0.01595
C          1.35101       -0.70233       -1.28648
C         -0.16483       -0.75954        1.13678
C         -0.17522       -0.74463       -1.14241
C         -0.64274       -2.16965        0.75976
C         -0.65007       -2.15947       -0.77954
H          1.67354       -1.34258        2.10787
H          1.65423       -1.31477       -2.13769
H         -1.63661       -2.35933        1.16103
H          1.69029        0.29823        1.47704
H          2.00601       -2.32372       -0.02292
H          1.67690        0.31760       -1.48549
H         -0.61893       -0.39557        2.06156
H         -0.63766       -0.36861       -2.05817
H          0.02184       -2.92956        1.16557
H         -1.64788       -2.34324       -1.17370
H          0.01019       -2.91422       -1.20168
N         -0.61340        0.05231        0.00446
C         -2.57825        0.19291        0.01376
H         -2.72948       -0.86366        0.01175
H         -2.59731        0.72547        0.94567
H         -2.60944        0.73623       -0.91188
O          3.44350       -0.96456       -0.02149
C          3.89486        0.29508       -0.01399
O          3.18090        1.27356       -0.00028
C          5.37334        0.36203       -0.02330
C          5.97454        1.61891        0.00823
C          6.16427       -0.78389       -0.06383
C          7.35151        1.72819       -0.00006
H          5.34352        2.49430        0.03904
C          7.54129       -0.66662       -0.07263
H          5.69467       -1.75457       -0.08883
C          8.13536        0.58571       -0.04062
H          7.81575        2.70251        0.02486
H          8.15583       -1.55391       -0.10464
H          9.21190        0.67070       -0.04746
C         -0.20459        1.44860        0.01152
H         -0.61990        1.93954       -0.86700
H         -0.61229        1.92856        0.89960
H          0.87502        1.59526        0.00786
I         -5.25958        0.36172        0.02665
