42
-60.34648237
C          1.22431       -0.07114        1.51292
C          2.02960       -0.55105        0.30385
C          1.36868       -0.16793       -1.02723
C         -0.27700       -0.30888        1.30130
C         -0.14499       -0.40523       -0.97067
C         -0.54993       -1.78509        0.97820
C         -0.44396       -1.85379       -0.55622
H          1.55414       -0.60256        2.40652
H          1.80522       -0.76721       -1.82736
H         -1.54224       -2.07326        1.32051
H          1.42591        0.98831        1.67508
H          2.15802       -1.63954        0.33830
H          1.58437        0.87914       -1.24770
H         -0.82728        0.03739        2.18001
H         -0.59544       -0.13997       -1.93039
H          0.16930       -2.43500        1.47169
H         -1.37286       -2.20184       -1.00467
H          0.34712       -2.52339       -0.88631
N         -0.76348        0.37309        0.10301
C         -2.81145        0.24211        0.00280
H         -2.83747        0.71731        0.96724
H         -2.79544        0.82583       -0.89691
H         -2.76047       -0.82235       -0.07872
O          3.33178        0.03632        0.39546
C          4.32013       -0.59310       -0.26001
O          4.14516       -1.59700       -0.90839
C          5.63025        0.07564       -0.09317
C          5.78821        1.19804        0.71590
C          6.72800       -0.44986       -0.77149
C          7.03355        1.78460        0.84073
H          4.93630        1.59932        1.24217
C          7.96957        0.14213       -0.64296
H          6.58312       -1.32113       -1.39211
C          8.12288        1.25943        0.16296
H          7.15775        2.65421        1.46892
H          8.81928       -0.26564       -1.16956
H          9.09344        1.72217        0.26423
C         -0.56326        1.80883        0.05322
H          0.48115        2.11504        0.13305
H         -0.95617        2.18771       -0.88907
H         -1.11676        2.27121        0.86936
I         -5.40632        0.11527       -0.11736
