42
-60.34638440
C          1.32239        0.42058        1.03422
C          2.03835       -0.54345        0.07860
C          1.28320       -0.72338       -1.23964
C         -0.18711        0.15138        1.04578
C         -0.22543       -0.86078       -0.99406
C         -0.46290       -1.32463        1.37070
C         -0.51163       -2.00418       -0.00995
H          1.72669        0.29216        2.03920
H          1.65016       -1.61303       -1.75305
H         -1.40548       -1.43669        1.90391
H          1.52611        1.44833        0.72818
H          2.16888       -1.51057        0.57871
H          1.49050        0.13023       -1.88602
H         -0.67831        0.83558        1.74217
H         -0.73762       -0.99246       -1.95077
H          0.31911       -1.73475        2.00584
H         -1.49141       -2.43692       -0.20400
H          0.22441       -2.79932       -0.10573
N         -0.76307        0.30304       -0.29103
C         -2.81738        0.18751       -0.22132
H         -2.76684        0.09440       -1.29299
H         -2.73971       -0.66737        0.41453
H         -2.86144        1.15715        0.23832
O          3.34291       -0.04712       -0.23905
C          4.30527       -0.26623        0.67104
O          4.10518       -0.83665        1.71671
C          5.62177        0.26062        0.24570
C          6.69318        0.14467        1.12885
C          5.81133        0.85558       -0.99905
C          7.93995        0.62007        0.77101
H          6.52410       -0.32119        2.08784
C          7.06171        1.32811       -1.35088
H          4.97984        0.93990       -1.68114
C          8.12476        1.21188       -0.46873
H          8.76926        0.53002        1.45639
H          7.21044        1.78833       -2.31647
H          9.09946        1.58290       -0.74921
C         -0.56607        1.58969       -0.93139
H          0.47976        1.83747       -1.12107
H         -1.09491        1.59495       -1.88361
H         -0.98837        2.36753       -0.29697
I         -5.40411       -0.02979       -0.15031
