42
-60.34758908
C          1.36499       -0.71925        1.29022
C          2.03136       -1.22379        0.00324
C          1.34412       -0.69181       -1.26142
C         -0.16364       -0.76742        1.16362
C         -0.18238       -0.73772       -1.11172
C         -0.63420       -2.17865        0.78041
C         -0.65640       -2.15502       -0.75847
H          1.68390       -1.34072        2.12914
H          1.64685       -1.29688       -2.11810
H         -1.62285       -2.37941        1.18928
H          1.68600        0.30083        1.49657
H          2.00330       -2.31886       -0.00856
H          1.66517        0.33120       -1.45289
H         -0.61551       -0.41248        2.09346
H         -0.64615       -0.35707       -2.02526
H          0.03974       -2.93697        1.17372
H         -1.65988       -2.32789       -1.14278
H         -0.00384       -2.90860       -1.19446
N         -0.62714        0.04452        0.04003
C         -2.67475        0.16995        0.04404
H         -2.81153       -0.88816        0.12937
H         -2.57730        0.73998        0.94164
H         -2.59846        0.68287       -0.89470
O          3.44228       -0.96064       -0.00604
C          3.89550        0.29745        0.00514
O          3.18600        1.27882        0.02433
C          5.37521        0.36028       -0.00839
C          5.98003        1.61533        0.01912
C          6.16290       -0.78771       -0.04840
C          7.35732        1.72089        0.00724
H          5.35134        2.49242        0.04980
C          7.54029       -0.67439       -0.06064
H          5.69045       -1.75711       -0.07009
C          8.13797        0.57625       -0.03278
H          7.82431        2.69403        0.02898
H          8.15227       -1.56353       -0.09215
H          9.21477        0.65825       -0.04243
C         -0.23597        1.44416        0.05502
H         -0.67373        1.93985       -0.81027
H         -0.63141        1.91017        0.95642
H          0.84174        1.60751        0.03284
I         -5.24548        0.36666       -0.01782
