42
tsb_conformer8.log	Energy: -706582.2521545
C          0.98468        0.49575       -0.95947
C          1.64317        0.43978        0.42487
C          0.86504       -0.42618        1.41587
C         -0.53289        0.68151       -0.83621
C         -0.64160       -0.15243        1.31563
C         -0.88230        1.90683        0.02937
C         -0.95781        1.34683        1.47179
H          1.41141        1.33175       -1.53134
H          1.20584       -0.21740        2.44070
H         -1.83991        2.34457       -0.28098
H          1.22349       -0.42404       -1.51458
H          1.72365        1.46682        0.81155
H          1.08236       -1.48784        1.22654
H         -0.99820        0.71546       -1.83245
H         -1.19285       -0.78162        2.03017
H         -0.12377        2.69342       -0.08177
H         -1.95565        1.49086        1.90609
H         -0.24363        1.83049        2.15208
N         -1.12924       -0.43171       -0.05720
C         -3.07693       -0.29967       -0.09831
H         -3.15157       -0.50129       -1.16283
H         -3.22791       -1.10848        0.61065
H         -3.17012        0.72210        0.24570
O          2.96202       -0.09204        0.33729
C          3.93992        0.74784       -0.04197
O          3.74166        1.90630       -0.30828
C          5.27435        0.08655       -0.09281
C          6.37171        0.86105       -0.48454
C          5.45158       -1.26221        0.23569
C          7.63889        0.29022       -0.54775
H          6.20989        1.91087       -0.73553
C          6.72133       -1.82953        0.17111
H          4.59190       -1.85948        0.54086
C          7.81377       -1.05489       -0.22011
H          8.49460        0.89537       -0.85351
H          6.86061       -2.88164        0.42758
H          8.80867       -1.50291       -0.26987
C         -0.89984       -1.77879       -0.56765
H         -1.42091       -2.49956        0.07769
H         -1.32161       -1.85468       -1.57936
H          0.16144       -2.05807       -0.61390
I         -5.79492       -0.18930       -0.17242
