42
-60.34656074
C          1.29403       -0.74815        1.23737
C          2.03801       -0.56775       -0.08731
C          1.31242        0.39324       -1.03883
C         -0.21556       -0.89227        1.00113
C         -0.19718        0.12466       -1.03695
C         -0.49878       -2.03563        0.01541
C         -0.47827       -1.34972       -1.36290
H          1.66851       -1.63552        1.74929
H          1.70765        0.26238       -2.04712
H         -1.46756       -2.48790        0.22065
H          1.50210        0.10732        1.88090
H          2.16694       -1.53515       -0.58728
H          1.51910        1.42187       -0.73773
H         -0.72316       -1.02826        1.95965
H         -0.69403        0.81064       -1.72748
H          0.25120       -2.81922        0.09783
H         -1.43233       -1.45721       -1.87610
H          0.29055       -1.75703       -2.01569
N         -0.76131        0.27225        0.30522
C         -2.81271        0.16366        0.24005
H         -2.73795       -0.76745       -0.28258
H         -2.78613        0.15883        1.31067
H         -2.84600        1.10277       -0.28446
O          3.34382       -0.06662        0.21714
C          4.30173       -0.29801       -0.69478
O          4.09758       -0.88726       -1.72915
C          5.61870        0.24130       -0.28706
C          6.69119        0.08949       -1.16348
C          5.80725        0.88483        0.93344
C          7.93813        0.57683       -0.82277
H          6.52274       -0.41339       -2.10369
C          7.05762        1.36985        1.26790
H          4.97481        0.99761        1.61022
C          8.12183        1.21735        0.39269
H          8.76834        0.45851       -1.50274
H          7.20539        1.86853        2.21434
H          9.09650        1.59837        0.65952
C         -0.55971        1.55730        0.94754
H         -1.01157        2.33383        0.33215
H         -1.05763        1.55032        1.91619
H          0.48847        1.81668        1.10558
I         -5.40227        0.01675        0.18531
