42
-60.34545967
C          1.36215       -0.72705        1.24409
C          2.03686       -1.23653       -0.03719
C          1.35610       -0.71175       -1.30909
C         -0.16535       -0.77154        1.11022
C         -0.17058       -0.76176       -1.16766
C         -0.64010       -2.18345        0.73634
C         -0.63677       -2.17939       -0.80305
H          1.67329       -1.34807        2.08619
H          1.66499       -1.32114       -2.16048
H         -1.63730       -2.36960        1.13106
H          1.68606        0.29174        1.45199
H          2.01043       -2.33167       -0.04342
H          1.67677        0.31050       -1.50471
H         -0.62076       -0.40701        2.03427
H         -0.63346       -0.39033       -2.08523
H          0.02109       -2.94203        1.15009
H         -1.62989       -2.37430       -1.20406
H          0.03289       -2.93014       -1.21755
N         -0.61694        0.03418       -0.02416
C         -2.61347        0.17164       -0.01038
H         -2.58760        0.65660        0.94683
H         -2.62244        0.75441       -0.91255
H         -2.72648       -0.88881       -0.07467
O          3.44667       -0.97134       -0.03937
C          3.89768        0.28816       -0.03198
O          3.18449        1.26711       -0.02194
C          5.37662        0.35438       -0.03721
C          5.97855        1.61106       -0.01643
C          6.16700       -0.79231       -0.06283
C          7.35564        1.71941       -0.02078
H          5.34795        2.48708        0.00310
C          7.54414       -0.67606       -0.06746
H          5.69683       -1.76291       -0.07927
C          8.13893        0.57613       -0.04636
H          7.82045        2.69367       -0.00433
H          8.15819       -1.56407       -0.08765
H          9.21556        0.66038       -0.04998
C         -0.21681        1.43252       -0.01977
H         -0.64023        1.91516        0.85956
H          0.86187        1.58742       -0.00948
H         -0.62260        1.91564       -0.90708
I         -5.26059        0.38522        0.06684
