42
-60.34413514
C          1.22211       -0.04573        1.50180
C          2.02545       -0.51696        0.28764
C          1.36346       -0.12380       -1.04042
C         -0.27931       -0.28025        1.29050
C         -0.15028       -0.35855       -0.98447
C         -0.55350       -1.75348        0.95479
C         -0.45100       -1.80966       -0.58046
H          1.55211       -0.58574        2.39016
H          1.79771       -0.71953       -1.84450
H         -1.54436       -2.04592        1.29768
H          1.42610        1.01163        1.67384
H          2.15308       -1.60578        0.31404
H          1.58224        0.92368       -1.25548
H         -0.82940        0.05975        2.17151
H         -0.60285       -0.08419       -1.94039
H          0.16725       -2.40724        1.44089
H         -1.38092       -2.15338       -1.03013
H          0.33861       -2.47758       -0.91741
N         -0.76143        0.41538        0.09750
C         -2.76997        0.29535        0.00220
H         -2.72195       -0.76679       -0.07467
H         -2.86619        0.75133        0.96819
H         -2.85270        0.90038       -0.88273
O          3.32785        0.06853        0.38050
C          4.31822       -0.56951       -0.26503
O          4.14246       -1.57872       -0.90468
C          5.62933        0.09632       -0.09779
C          5.77985        1.24880        0.66941
C          6.73613       -0.46256       -0.73358
C          7.02674        1.83182        0.79513
H          4.92084        1.67678        1.16200
C          7.97942        0.12536       -0.60336
H          6.59682       -1.35646       -1.32246
C          8.12524        1.27272        0.16064
H          7.14498        2.72531        1.39004
H          8.83627       -0.30891       -1.09607
H          9.09704        1.73259        0.26282
C         -0.55414        1.85115        0.05909
H         -0.94930        2.23899       -0.87844
H         -1.10247        2.30860        0.88128
H          0.49210        2.15008        0.13742
I         -5.40745        0.05311       -0.10132
