42
-60.34495810
C          1.29909       -0.75397        1.26088
C          2.03937       -0.56257       -0.06458
C          1.31173        0.40706       -1.00598
C         -0.21057       -0.89711        1.02578
C         -0.19858        0.14430       -1.00143
C         -0.49176       -2.02910        0.02602
C         -0.48924       -1.32425       -1.34289
H          1.67522       -1.64548        1.76425
H          1.70207        0.28186       -2.01689
H         -1.45300       -2.49671        0.23244
H          1.50841        0.09611        1.91101
H          2.16609       -1.52548       -0.57373
H          1.52388        1.43301       -0.69952
H         -0.71922       -1.04366        1.98195
H         -0.69385        0.84054       -1.68271
H          0.26722       -2.80560        0.09143
H         -1.45214       -1.41981       -1.84149
H          0.26788       -1.72527       -2.01296
N         -0.75513        0.27806        0.34562
C         -2.78288        0.17905        0.27496
H         -2.78026        1.05505       -0.34681
H         -2.72499       -0.79738       -0.15563
H         -2.85938        0.29090        1.34021
O          3.34623       -0.06501        0.24018
C          4.29928       -0.28368       -0.68057
O          4.08826       -0.85812       -1.72180
C          5.61863        0.24933       -0.27319
C          6.68528        0.11092       -1.15897
C          5.81534        0.87404        0.95581
C          7.93449        0.59294       -0.81913
H          6.51054       -0.37746       -2.10565
C          7.06799        1.35375        1.28934
H          4.98746        0.97642        1.63982
C          8.12634        1.21466        0.40482
H          8.76013        0.48504       -1.50632
H          7.22215        1.83778        2.24233
H          9.10283        1.59143        0.67102
C         -0.54752        1.55409        1.00460
H         -1.01307        1.52277        1.98854
H          0.50231        1.82195        1.13281
H         -1.02850        2.33642        0.41931
I         -5.40812        0.00137        0.13890
