42
-60.34262808
C          1.30968       -0.83627        1.26025
C          2.04529       -0.62941       -0.06594
C          1.30876        0.34178       -0.99955
C         -0.19980       -0.98360        1.03083
C         -0.19992        0.07299       -0.99079
C         -0.48168       -2.10872        0.02367
C         -0.48660       -1.39437       -1.34030
H          1.69108       -1.73119        1.75351
H          1.69512        0.22237       -2.01268
H         -1.44052       -2.58116        0.23018
H          1.51924        0.00784        1.91798
H          2.17856       -1.58750       -0.58264
H          1.51896        1.36724       -0.69040
H         -0.70443       -1.13813        1.98773
H         -0.70230        0.77188       -1.66367
H          0.28006       -2.88318        0.08048
H         -1.45060       -1.49063       -1.83654
H          0.26974       -1.78819       -2.01547
N         -0.74758        0.19747        0.36181
C         -2.73145        0.10093        0.29926
H         -2.81391        0.97718       -0.31078
H         -2.71272       -0.87267       -0.14411
H         -2.85318        0.18983        1.36204
O          3.34801       -0.12464        0.24229
C          4.29946       -0.31604       -0.68716
O          4.08704       -0.86879       -1.73963
C          5.61601        0.21723       -0.27267
C          6.67605        0.12399       -1.17227
C          5.81716        0.79717        0.97746
C          7.92298        0.60680       -0.82519
H          6.49815       -0.33029       -2.13519
C          7.06762        1.27736        1.31825
H          4.99465        0.86408        1.67225
C          8.11930        1.18360        0.41988
H          8.74343        0.53431       -1.52312
H          7.22534        1.72605        2.28778
H          9.09411        1.56050        0.69185
C         -0.53780        1.47013        1.02807
H          0.51266        1.73625        1.14933
H         -1.02439        2.25462        0.45074
H         -0.99665        1.43207        2.01474
I         -5.41587        0.11671        0.12717
