42
-60.34520269
C          1.37303       -0.71365        1.24773
C          2.05053       -1.24837       -0.02152
C          1.37205       -0.74952       -1.30491
C         -0.15444       -0.76090        1.11255
C         -0.15505       -0.79960       -1.16503
C         -0.63168       -2.17918        0.76804
C         -0.61920       -2.21010       -0.77098
H          1.68328       -1.31669        2.10311
H          1.68437       -1.37408       -2.14392
H         -1.63272       -2.35017        1.15961
H          1.69565        0.30970        1.43465
H          2.02515       -2.34344       -0.00575
H          1.69031        0.26989       -1.51847
H         -0.61018       -0.37637        2.02831
H         -0.61778       -0.44786       -2.09037
H          0.02328       -2.93110        1.20326
H         -1.60929       -2.41752       -1.17308
H          0.05508       -2.96802       -1.16445
N         -0.60347        0.01887       -0.03947
C         -2.62529        0.14984       -0.02494
H         -2.58605        0.60966        0.94151
H         -2.66032        0.77672       -0.89399
H         -2.75345       -0.90923       -0.12799
O          3.46027       -0.98163       -0.02485
C          3.90968        0.27822       -0.04422
O          3.19567        1.25643       -0.06173
C          5.38871        0.34620       -0.04222
C          6.18055       -0.79868        0.00668
C          5.98904        1.60291       -0.08943
C          7.55756       -0.68061        0.00815
H          5.71163       -1.76931        0.04391
C          7.36599        1.71309       -0.08854
H          5.35728        2.47753       -0.12659
C          8.15076        0.57159       -0.03956
H          8.17277       -1.56722        0.04677
H          7.82953        2.68738       -0.12575
H          9.22729        0.65726       -0.03833
C         -0.21388        1.41909       -0.06481
H         -0.61268        1.87704       -0.96845
H         -0.65056        1.92000        0.79771
H          0.86393        1.58155       -0.04662
I         -5.28220        0.40790        0.06911
