42
-60.34618795
C          1.36480       -0.73082        1.25599
C          2.03717       -1.23812       -0.02719
C          1.35426       -0.71076       -1.29664
C         -0.16300       -0.77748        1.12433
C         -0.17236       -0.76047       -1.15301
C         -0.63593       -2.18910        0.74675
C         -0.64096       -2.17809       -0.79253
H          1.67890       -1.35178        2.09705
H          1.66182       -1.31800       -2.15004
H         -1.63044       -2.37998        1.14582
H          1.68706        0.28863        1.46334
H          2.01067       -2.33324       -0.03562
H          1.67434        0.31211       -1.49014
H         -0.61789       -0.41634        2.05001
H         -0.63538       -0.38589       -2.06929
H          0.02948       -2.94774        1.15361
H         -1.63762       -2.36536       -1.18798
H          0.02305       -2.92971       -1.21442
N         -0.61807        0.03028       -0.00652
C         -2.63017        0.16104        0.00437
H         -2.60098        0.68073        0.94185
H         -2.60983        0.70945       -0.91751
H         -2.77043       -0.89875       -0.01323
O          3.44717       -0.97288       -0.03128
C          3.89818        0.28649       -0.02269
O          3.18551        1.26574       -0.01039
C          5.37733        0.35238       -0.02982
C          5.97958        1.60890       -0.01056
C          6.16742       -0.79447       -0.05554
C          7.35670        1.71695       -0.01655
H          5.34919        2.48506        0.00911
C          7.54459       -0.67856       -0.06174
H          5.69699       -1.76497       -0.07075
C          8.13971        0.57349       -0.04220
H          7.82175        2.69111       -0.00133
H          8.15841       -1.56674       -0.08196
H          9.21636        0.65748       -0.04706
C         -0.22443        1.42981        0.00233
H         -0.64194        1.91716       -0.87729
H         -0.63973        1.90518        0.88952
H          0.85382        1.58924        0.00193
I         -5.25844        0.39053        0.04465
