42
tsb_conformer7.log	Energy: -706579.0448407
C         -0.98450        0.65912        1.28915
C         -1.66039        1.15169       -0.00000
C         -0.98451        0.65909       -1.28915
C          0.54343        0.71894        1.15449
C          0.54342        0.71893       -1.15450
C          1.03605        2.12737        0.77402
C          1.03601        2.12738       -0.77405
H         -1.29952        1.29383        2.13087
H         -1.29954        1.29376       -2.13089
H          2.04197        2.30956        1.17422
H         -1.30206       -0.36418        1.52313
H         -1.61525        2.25013       -0.00002
H         -1.30206       -0.36423       -1.52309
H          1.01687        0.33716        2.07129
H          1.01687        0.33715       -2.07129
H          0.38278        2.90152        1.19989
H          2.04188        2.30964       -1.17432
H          0.38266        2.90150       -1.19986
N          0.99011       -0.09453       -0.00000
C          2.95215       -0.21888       -0.00000
H          2.98903       -0.76450       -0.93816
H          3.16306        0.84236       -0.00019
H          2.98908       -0.76415        0.93836
O         -3.07075        0.91342        0.00001
C         -3.55789       -0.33223        0.00002
O         -2.87083       -1.32683        0.00003
C         -5.04844       -0.35637        0.00001
C         -5.68195       -1.60402       -0.00001
C         -5.81242        0.81634        0.00001
C         -7.07114       -1.67879       -0.00002
H         -5.06664       -2.50542       -0.00001
C         -7.20225        0.73689        0.00000
H         -5.31129        1.78468        0.00002
C         -7.83121       -0.50852       -0.00001
H         -7.56452       -2.65269       -0.00003
H         -7.79899        1.65117        0.00001
H         -8.92188       -0.56738       -0.00002
C          0.57687       -1.49713        0.00001
H          0.99467       -1.98857       -0.88979
H          0.99477       -1.98858        0.88975
H         -0.51373       -1.63264        0.00006
I          5.65027       -0.44849       -0.00000
