42
-60.34462629
C          1.33077        0.41331        1.02429
C          2.04642       -0.55398        0.07140
C          1.29017       -0.73866       -1.24571
C         -0.17793        0.14167        1.04017
C         -0.21791       -0.87769       -0.99821
C         -0.45102       -1.33394        1.36906
C         -0.50265       -2.01747       -0.00961
H          1.73733        0.28963        2.02893
H          1.65793       -1.62923       -1.75686
H         -1.39181       -1.44616        1.90521
H          1.53250        1.44002        0.71358
H          2.17731       -1.51935        0.57483
H          1.49567        0.11328       -1.89484
H         -0.67015        0.82736        1.73408
H         -0.73253       -1.01130       -1.95306
H          0.33326       -1.74126        2.00321
H         -1.48315       -2.44994       -0.20028
H          0.23260       -2.81345       -0.10431
N         -0.75127        0.28943       -0.29789
C         -2.78528        0.17169       -0.22303
H         -2.83318        0.05717       -1.28975
H         -2.73563       -0.67399        0.42574
H         -2.91071        1.14084        0.21519
O          3.35064       -0.05866       -0.24808
C          4.31086       -0.26998        0.66686
O          4.10703       -0.83292        1.71582
C          5.62812        0.25504        0.24284
C          6.69721        0.14128        1.12919
C          5.82103        0.84656       -1.00306
C          7.94505        0.61520        0.77327
H          6.52542       -0.32173        2.08906
C          7.07248        1.31773       -1.35286
H          4.99135        0.92936       -1.68754
C          8.13323        1.20352       -0.46764
H          8.77252        0.52677        1.46105
H          7.22392        1.77533       -2.31924
H          9.10877        1.57342       -0.74661
C         -0.56329        1.57465       -0.94346
H         -1.09482        1.57220       -1.89395
H         -0.98869        2.35215       -0.31094
H          0.48114        1.82569       -1.13596
I         -5.42062       -0.01016       -0.14211
