42
tsa.log	Energy: -706580.4070382
C          0.32908        1.64100        1.45586
C         -0.63526        1.82431        0.28310
C          0.05168        1.72769       -1.08574
C          1.65291        2.36443        1.20528
C          1.40614        2.43570       -1.08416
C          1.43681        3.86492        0.89429
C          1.27545        3.91358       -0.64452
H         -0.12859        2.03755        2.37405
H         -0.59635        2.18642       -1.84601
H          2.29563        4.46413        1.22635
H          0.50267        0.57091        1.63224
H         -1.12867        2.80559        0.35578
H          0.17009        0.67178       -1.36583
H          2.33504        2.19698        2.05060
H          1.88906        2.32170       -2.06473
H          0.55765        4.25412        1.42603
H          2.05439        4.53372       -1.10884
H          0.30961        4.33243       -0.95858
N          2.27655        1.83625       -0.03722
C          3.67777        2.23641       -0.17492
H          4.06955        1.86256       -1.13047
H          3.81546        3.32784       -0.14402
H          4.26482        1.78749        0.63768
O         -1.63634        0.82210        0.40137
C         -2.83852        1.07354       -0.14384
O         -3.11104        2.12286       -0.67139
C         -3.76938       -0.08149       -0.01600
C         -5.09167        0.09265       -0.43940
C         -3.35249       -1.31680        0.49352
C         -5.99514       -0.96098       -0.34658
H         -5.39184        1.06281       -0.83951
C         -4.25932       -2.36984        0.57926
H         -2.31797       -1.45171        0.81104
C         -5.57864       -2.19203        0.16249
H         -7.02757       -0.82458       -0.67461
H         -3.93243       -3.33532        0.97007
H         -6.28716       -3.02052        0.23170
C          2.38499       -0.12689       -0.08096
H          2.98098       -0.18308        0.82500
H          1.32619       -0.33363       -0.02724
H          2.87869       -0.15974       -1.04779
I          2.55165       -2.83544       -0.09921
