37
tsi.log	Energy: -494664.0025443
C         -1.61577        0.78461        1.16291
C         -0.86416       -0.22137        0.29300
C         -1.44108       -0.34204       -1.12092
C         -3.13577        0.59305        0.99403
C         -2.97957       -0.41217       -1.05801
C         -3.56416       -0.87498        1.26610
C         -3.45842       -1.55549       -0.12212
H         -1.30214        0.66887        2.21294
H         -1.01081       -1.22809       -1.61266
H         -4.60044       -0.89563        1.63184
H         -1.35371        1.80534        0.84298
H         -0.88694       -1.21436        0.76687
H         -1.15345        0.54912       -1.70094
H         -3.67726        1.31308        1.62611
H         -3.39234       -0.49842       -2.07437
H         -2.94003       -1.36145        2.03128
H         -4.44200       -1.91728       -0.45328
H         -2.77447       -2.41767       -0.12712
N         -3.46921        0.77055       -0.39613
O          0.50759        0.19087        0.24405
C          1.43712       -0.74784        0.04923
O          1.18978       -1.92175       -0.07681
C          2.81874       -0.17877        0.00857
C          3.88615       -1.06140       -0.18499
C          3.06349        1.19058        0.15682
C          5.19060       -0.57856       -0.22956
H          3.66974       -2.12524       -0.29836
C          4.37004        1.67049        0.11155
H          2.22436        1.87070        0.30635
C          5.43295        0.78765       -0.08123
H          6.02277       -1.26927       -0.38066
H          4.56093        2.73946        0.22727
H          6.45683        1.16687       -0.11635
C         -4.30861        1.78886       -0.93617
H         -3.79959        2.76083       -1.10164
H         -4.70133        1.46381       -1.91260
H         -5.18376        1.98691       -0.28797
