42
tsa_conformer15.log	Energy: -706580.4076532
C         -0.05151        1.72767       -1.08567
C          0.63540        1.82428        0.28319
C         -0.32896        1.64106        1.45594
C         -1.40594        2.43573       -1.08413
C         -1.65276        2.36454        1.20531
C         -1.27520        3.91363       -0.64453
C         -1.43657        3.86501        0.89428
H          0.59656        2.18637       -1.84591
H          0.12870        2.03765        2.37412
H         -2.05412        4.53378       -1.10887
H         -0.16995        0.67176       -1.36575
H          1.12887        2.80553        0.35585
H         -0.50260        0.57100        1.63239
H         -1.88885        2.32173       -2.06470
H         -2.33492        2.19715        2.05061
H         -0.30935        4.33244       -0.95860
H         -2.29536        4.46427        1.22633
H         -0.55740        4.25418        1.42602
N         -2.27639        1.83635       -0.03719
C         -3.67759        2.23659       -0.17493
H         -3.81521        3.32803       -0.14406
H         -4.06937        1.86273       -1.13047
H         -4.26467        1.78772        0.63769
O          1.63643        0.82203        0.40150
C          2.83854        1.07334       -0.14392
O          3.11098        2.12257       -0.67171
C          3.76941       -0.08167       -0.01601
C          3.35259       -1.31688        0.49379
C          5.09164        0.09240       -0.43965
C          4.25942       -2.36991        0.57957
H          2.31812       -1.45172        0.81148
C          5.99512       -0.96123       -0.34678
H          5.39175        1.06248       -0.83997
C          5.57869       -2.19219        0.16257
H          3.93259       -3.33532        0.97060
H          7.02750       -0.82489       -0.67499
H          6.28721       -3.02067        0.23181
C         -2.38491       -0.12679       -0.08091
H         -2.87863       -0.15960       -1.04772
H         -1.32611       -0.33359       -0.02720
H         -2.98086       -0.18295        0.82507
I         -2.55194       -2.83534       -0.09926
