42
tsa_conformer14.log	Energy: -706580.4136710
C         -0.05175        1.72782       -1.08560
C          0.63509        1.82444        0.28328
C         -0.32931        1.64100        1.45597
C         -1.40631        2.43565       -1.08408
C         -1.65320        2.36431        1.20532
C         -1.27578        3.91354       -0.64440
C         -1.43722        3.86482        0.89439
H          0.59626        2.18668       -1.84581
H          0.12827        2.03761        2.37419
H         -2.05474        4.53361       -1.10877
H         -0.16996        0.67193       -1.36572
H          1.12844        2.80574        0.35603
H         -0.50281        0.57089        1.63237
H         -1.88915        2.32164       -2.06469
H         -2.33536        2.19676        2.05060
H         -0.30995        4.33247       -0.95839
H         -2.29612        4.46394        1.22640
H         -0.55814        4.25409        1.42619
N         -2.27677        1.83609       -0.03722
C         -3.67801        2.23614       -0.17505
H         -3.81579        3.32755       -0.14410
H         -4.06964        1.86230       -1.13066
H         -4.26509        1.78711        0.63748
O          1.63623        0.82229        0.40158
C          2.83828        1.07369       -0.14392
O          3.11061        2.12291       -0.67177
C          3.76926       -0.08124       -0.01600
C          3.35262       -1.31642        0.49404
C          5.09141        0.09286       -0.43987
C          4.25954       -2.36937        0.57983
H          2.31821       -1.45128        0.81192
C          5.99498       -0.96069       -0.34700
H          5.39139        1.06292       -0.84037
C          5.57873       -2.19160        0.16259
H          3.93284       -3.33474        0.97106
H          7.02730       -0.82432       -0.67540
H          6.28732       -3.02003        0.23184
C         -2.38483       -0.12697       -0.08121
H         -2.98066       -0.18311        0.82484
H         -2.87866       -0.16007       -1.04796
H         -1.32600       -0.33360       -0.02801
I         -2.55125       -2.83566       -0.09926
