42
-60.34456221
C         -0.49476        1.83269        1.05613
C         -1.22603        1.81206       -0.29287
C         -0.25598        1.83076       -1.47561
C          0.68098        2.80693        1.03213
C          0.89569        2.80489       -1.22892
C          0.20631        4.21629        0.61775
C          0.35245        4.21550       -0.91287
H         -1.19807        2.12744        1.83677
H         -0.79028        2.12394       -2.38062
H          0.82798        4.98425        1.07723
H         -0.14730        0.82712        1.29317
H         -1.90911        2.66902       -0.34410
H          0.12626        0.82423       -1.63928
H          1.17665        2.80280        2.00525
H          1.56632        2.79941       -2.09095
H         -0.81884        4.38900        0.93633
H          1.05139        4.98177       -1.24726
H         -0.59359        4.39160       -1.41924
N          1.62558        2.41060       -0.01886
C          2.90071        3.10607        0.10026
H          3.38067        2.82081        1.03459
H          3.54873        2.81194       -0.72329
H          2.79756        4.19226        0.08577
O         -2.01543        0.62719       -0.40025
C         -3.22612        0.65456        0.18028
O         -3.65582        1.62460        0.75889
C         -3.96064       -0.61941        0.02042
C         -3.38457       -1.72994       -0.59185
C         -5.26376       -0.69437        0.50842
C         -4.11061       -2.89981       -0.71334
H         -2.37416       -1.67024       -0.96405
C         -5.98398       -1.86622        0.38142
H         -5.68952        0.17745        0.98179
C         -5.40778       -2.96922       -0.22940
H         -3.66399       -3.76206       -1.18540
H         -6.99405       -1.92286        0.75883
H         -5.97030       -3.88601       -0.32736
C          2.23874        0.45697        0.03803
H          1.22757        0.12517       -0.06810
H          2.84095        0.59984       -0.83794
H          2.65117        0.64792        1.01123
I          3.07121       -2.03888        0.11731
