42
tsa_conformer16.log	Energy: -706580.4055824
C          0.32938        1.64118        1.45592
C         -0.63498        1.82451        0.28318
C          0.05188        1.72786       -1.08572
C          1.65332        2.36438        1.20523
C          1.40651        2.43557       -1.08420
C          1.43743        3.86488        0.89417
C          1.27616        3.91350       -0.64465
H         -0.12819        2.03790        2.37409
H         -0.59610        2.18679       -1.84590
H          2.29629        4.46401        1.22626
H          0.50280        0.57109        1.63242
H         -1.12841        2.80578        0.35584
H          0.17004        0.67195       -1.36591
H          2.33548        2.19688        2.05052
H          1.88938        2.32141       -2.06478
H          0.55828        4.25419        1.42583
H          2.05531        4.53340       -1.10895
H          0.31046        4.33260       -0.95880
N          2.27682        1.83600       -0.03725
C          3.67812        2.23584       -0.17501
H          3.81608        3.32723       -0.14384
H          4.26514        1.78656        0.63742
H          4.06970        1.86213       -1.13069
O         -1.63607        0.82232        0.40147
C         -2.83821        1.07384       -0.14378
O         -3.11062        2.12318       -0.67135
C         -3.76917       -0.08111       -0.01598
C         -3.35238       -1.31650        0.49343
C         -5.09147        0.09319       -0.43932
C         -4.25930       -2.36945        0.57913
H         -2.31786       -1.45152        0.81090
C         -5.99504       -0.96037       -0.34653
H         -5.39156        1.06341       -0.83934
C         -5.57863       -2.19149        0.16244
H         -3.93249       -3.33499        0.96986
H         -7.02747       -0.82384       -0.67450
H         -6.28722       -3.01992        0.23162
C          2.38475       -0.12720       -0.08074
H          1.32589       -0.33370       -0.02722
H          2.87878       -0.16035       -1.04738
H          2.98045       -0.18346        0.82541
I          2.55096       -2.83576       -0.09922
