42
-60.34338100
C         -0.45743        1.87179        1.07259
C         -1.17633        1.83964       -0.28334
C         -0.19765        1.85119       -1.45950
C          0.72610        2.83630        1.05059
C          0.95658        2.82145       -1.21012
C          0.26368        4.24641        0.62528
C          0.41927        4.23628       -0.90442
H         -1.16596        2.18154        1.84268
H         -0.72506        2.14334       -2.36885
H          0.88722        5.01304        1.08442
H         -0.12190        0.86631        1.32692
H         -1.86208        2.69371       -0.34674
H          0.18101        0.84242       -1.61703
H          1.21596        2.83308        2.02654
H          1.63315        2.80870       -2.06740
H         -0.76242        4.42757        0.93595
H          1.12409        4.99721       -1.23865
H         -0.52288        4.41453       -1.41722
N          1.67573        2.43121        0.00734
C          2.95501        3.11738        0.13507
H          2.86030        4.20422        0.11395
H          3.42202        2.83203        1.07581
H          3.60903        2.81374       -0.68022
O         -1.95918        0.65051       -0.38703
C         -3.17881        0.67791        0.17472
O         -3.62527        1.65444        0.72919
C         -3.89836       -0.60581        0.02687
C         -5.21760       -0.67740        0.47001
C         -3.29134       -1.72973       -0.52861
C         -5.92333       -1.85916        0.35387
H         -5.66727        0.20471        0.90026
C         -4.00291       -2.90957       -0.63873
H         -2.26832       -1.67315       -0.86503
C         -5.31633       -2.97552       -0.20030
H         -6.94606       -1.91319        0.69597
H         -3.53201       -3.78216       -1.06597
H         -5.86749       -3.90010       -0.28918
C          2.26869        0.48705        0.04343
H          2.83086        0.61494       -0.86369
H          2.76942        0.57890        0.98880
H          1.25033        0.17060        0.00949
I          2.95277       -2.07597        0.09095
