42
-60.34491605
C         -0.45560        1.87030        1.06961
C         -1.17461        1.84815       -0.28639
C         -0.19679        1.86582       -1.46310
C          0.73167        2.83011        1.05330
C          0.96304        2.82725       -1.20601
C          0.27630        4.24507        0.63656
C          0.43347        4.24349       -0.89276
H         -1.16328        2.17719        1.84157
H         -0.72325        2.16852       -2.36955
H          0.90322        5.00570        1.10111
H         -0.12220        0.86232        1.31653
H         -1.85967        2.70315       -0.34404
H          0.17699        0.85668       -1.62966
H          1.22068        2.81956        2.02974
H          1.64006        2.81584       -2.06306
H         -0.74923        4.42909        0.94746
H          1.14321        5.00222       -1.22161
H         -0.50703        4.43021       -1.40558
N          1.67865        2.42207        0.00884
C          2.96198        3.09974        0.13992
H          3.42856        2.80764        1.07897
H          3.61421        2.79722       -0.67737
H          2.87407        4.18732        0.12477
O         -1.95803        0.65966       -0.39757
C         -3.16935        0.67704        0.18173
O         -3.61105        1.64568        0.75357
C         -3.88634       -0.60810        0.03178
C         -5.19286       -0.69421        0.50863
C         -3.28816       -1.72002       -0.55643
C         -5.89451       -1.87860        0.39437
H         -5.63581        0.17876        0.96378
C         -3.99561       -2.90245       -0.66501
H         -2.27499       -1.65207       -0.91952
C         -5.29620       -2.98304       -0.19213
H         -6.90720       -1.94403        0.76328
H         -3.53143       -3.76577       -1.11773
H         -5.84401       -3.90977       -0.27937
C          2.25620        0.45937        0.04819
H          2.70834        0.62214        1.00959
H          1.24017        0.13707       -0.02637
H          2.83565        0.62656       -0.84040
I          2.93594       -2.07032        0.08114
