42
-60.34446466
C         -0.48080        1.83382        1.06164
C         -1.21322        1.82187       -0.28709
C         -0.24581        1.84660       -1.47218
C          0.70102        2.80037        1.04175
C          0.91422        2.80909       -1.21966
C          0.23620        4.21505        0.63531
C          0.38251        4.22200       -0.89520
H         -1.18214        2.12958        1.84364
H         -0.78029        2.15378       -2.37246
H          0.86256        4.97645        1.09933
H         -0.13878        0.82547        1.29455
H         -1.89671        2.67884       -0.33259
H          0.12717        0.83880       -1.64885
H          1.19754        2.78742        2.01434
H          1.58426        2.80356       -2.08220
H         -0.78794        4.39265        0.95444
H          1.08727        4.98481       -1.22524
H         -0.56222        4.40844       -1.40033
N          1.64206        2.40186       -0.01214
C          2.92187        3.08850        0.11012
H          2.82513        4.17513        0.10257
H          3.40071        2.79459        1.04239
H          3.56781        2.79595       -0.71574
O         -2.00140        0.63666       -0.39922
C         -3.21132        0.65852        0.18328
O         -3.64483        1.62674        0.76200
C         -3.93851       -0.62000        0.02664
C         -5.24206       -0.70078        0.51253
C         -3.35390       -1.73024       -0.57807
C         -5.95415       -1.87818        0.39103
H         -5.67449        0.17083        0.98020
C         -4.07176       -2.90569       -0.69396
H         -2.34309       -1.66630       -0.94843
C         -5.36933       -2.98096       -0.21197
H         -6.96452       -1.93941        0.76694
H         -3.61827       -3.76775       -1.15973
H         -5.92534       -3.90219       -0.30515
C          2.22688        0.45751        0.03828
H          1.21949        0.11788       -0.09498
H          2.82214        0.61803       -0.83374
H          2.66411        0.63274        1.00611
I          3.03047       -2.03710        0.10009
