42
-60.34351237
C         -0.45708        1.86576        1.07375
C         -1.17668        1.84032       -0.28199
C         -0.19903        1.85610       -1.45902
C          0.72756        2.82890        1.05590
C          0.95926        2.82019       -1.20476
C          0.26897        4.24132        0.63459
C          0.42646        4.23592       -0.89492
H         -1.16525        2.17230        1.84544
H         -0.72603        2.15654       -2.36592
H          0.89381        5.00491        1.09702
H         -0.12166        0.85888        1.32236
H         -1.86179        2.69520       -0.34131
H          0.17505        0.84692       -1.62483
H          1.21661        2.82198        2.03227
H          1.63677        2.80724       -2.06125
H         -0.75709        4.42385        0.94464
H          1.13426        4.99559       -1.22567
H         -0.51447        4.41921       -1.40819
N          1.67630        2.42409        0.01212
C          2.95821        3.10509        0.14039
H          3.42499        2.81705        1.08045
H          3.61000        2.79921       -0.67580
H          2.86779        4.19233        0.12066
O         -1.96033        0.65202       -0.39000
C         -3.17608        0.67527        0.18034
O         -3.61947        1.64852        0.74299
C         -3.89506       -0.60872        0.03225
C         -5.20666       -0.68750        0.49635
C         -3.29443       -1.72643       -0.54237
C         -5.91096       -1.87035        0.38271
H         -5.65144        0.18989        0.94109
C         -4.00458       -2.90732       -0.65025
H         -2.27733       -1.66427       -0.89534
C         -5.31023       -2.98057       -0.19029
H         -6.92761       -1.93006        0.74158
H         -3.53856       -3.77512       -1.09234
H         -5.86016       -3.90608       -0.27707
C          2.25994        0.48099        0.06409
H          1.24722        0.16224       -0.03110
H          2.86442        0.56155       -0.81618
H          2.72157        0.58803        1.02996
I          2.94791       -2.06796        0.07743
