42
-60.34459726
C         -0.14733        1.73124        1.60619
C         -1.17683        1.78762        0.47606
C         -0.51685        1.89419       -0.90542
C          0.99509        2.71726        1.36240
C          0.66919        2.85560       -0.87947
C          0.44516        4.14572        1.15946
C          0.22476        4.23972       -0.35904
H         -0.63357        1.96761        2.55389
H         -1.25650        2.24703       -1.62613
H          1.16395        4.88827        1.50521
H          0.23840        0.71587        1.68494
H         -1.85425        2.63901        0.61673
H         -0.19661        0.90392       -1.22991
H          1.70607        2.65984        2.18982
H          1.11663        2.90703       -1.87434
H         -0.47406        4.29314        1.72141
H          0.82776        5.03202       -0.80176
H         -0.81369        4.43474       -0.61571
N          1.66282        2.39005        0.09708
C          2.93009        3.09627       -0.04849
H          2.82858        4.17957        0.03144
H          3.62240        2.76084        0.72186
H          3.35953        2.86436       -1.02150
O         -1.96196        0.59708        0.54797
C         -3.19489        0.65500        0.01928
O         -3.64983        1.65707       -0.48011
C         -3.91836       -0.63097        0.12560
C         -3.31971       -1.77098        0.65666
C         -5.23319       -0.68720       -0.33252
C         -4.03494       -2.95166        0.72721
H         -2.30054       -1.72529        1.00633
C         -5.94224       -1.87029       -0.25730
H         -5.67646        0.20761       -0.74275
C         -5.34343       -3.00282        0.27235
H         -3.57087       -3.83661        1.13623
H         -6.96111       -1.91271       -0.61231
H         -5.89713       -3.92840        0.32942
C          2.26268        0.44541       -0.05790
H          1.23692        0.14440       -0.05076
H          2.70813        0.67341       -1.00057
H          2.81646        0.65990        0.84270
I          2.98221       -2.00596       -0.39453
