42
tsa_conformer1.log	Energy: -706580.4081113
C         -0.05157        1.72771       -1.08566
C          0.63533        1.82433        0.28320
C         -0.32904        1.64104        1.45593
C         -1.40604        2.43572       -1.08412
C         -1.65286        2.36447        1.20531
C         -1.27537        3.91361       -0.64449
C         -1.43674        3.86496        0.89432
H          0.59648        2.18645       -1.84590
H          0.12860        2.03760        2.37413
H         -2.05431        4.53373       -1.10883
H         -0.16997        0.67180       -1.36575
H          1.12875        2.80560        0.35589
H         -0.50265        0.57096        1.63234
H         -1.88893        2.32171       -2.06470
H         -2.33501        2.19704        2.05062
H         -0.30952        4.33246       -0.95854
H         -2.29556        4.46418        1.22637
H         -0.55758        4.25416        1.42607
N         -2.27647        1.83628       -0.03719
C         -3.67768        2.23647       -0.17493
H         -4.06944        1.86264       -1.13049
H         -4.26475        1.78754        0.63766
H         -3.81535        3.32790       -0.14401
O          1.63639        0.82211        0.40151
C          2.83848        1.07343       -0.14394
O          3.11090        2.12265       -0.67175
C          3.76937       -0.08156       -0.01602
C          3.35258       -1.31677        0.49383
C          5.09159        0.09251       -0.43969
C          4.25943       -2.36978        0.57964
H          2.31812       -1.45161        0.81155
C          5.99509       -0.96110       -0.34680
H          5.39168        1.06258       -0.84005
C          5.57869       -2.19205        0.16260
H          3.93262       -3.33517        0.97071
H          7.02746       -0.82476       -0.67504
H          6.28722       -3.02052        0.23186
C         -2.38490       -0.12685       -0.08099
H         -1.32610       -0.33362       -0.02733
H         -2.98085       -0.18303        0.82499
H         -2.87863       -0.15966       -1.04781
I         -2.55177       -2.83541       -0.09926
