42
-60.34199199
C         -0.48254        1.85299        1.04539
C         -1.20629        1.83377       -0.30730
C         -0.22708        1.84731       -1.48199
C          0.69276        2.82686        1.02953
C          0.92199        2.82289       -1.23159
C          0.22691        4.23735        0.61098
C          0.38319        4.23517       -0.91873
H         -1.19012        2.14237        1.82398
H         -0.75402        2.13103       -2.39415
H          0.84908        5.00310        1.07359
H         -0.13023        0.84813        1.27638
H         -1.88838        2.69125       -0.36399
H          0.16113        0.84089       -1.62848
H          1.18356        2.82099        2.00501
H          1.59819        2.81593       -2.08938
H         -0.79953        4.41464        0.92279
H          1.08826        4.99813       -1.24801
H         -0.55850        4.41558       -1.43163
N          1.64000        2.42606       -0.01646
C          2.92651        3.09435        0.11473
H          2.84039        4.18218        0.10417
H          3.39330        2.79592        1.05159
H          3.57665        2.79339       -0.70482
O         -1.99489        0.64891       -0.41882
C         -3.20110        0.66914        0.17119
O         -3.63019        1.63527        0.75685
C         -3.93024       -0.60825        0.01410
C         -3.35758       -1.70994       -0.61714
C         -5.22318       -0.69685        0.52624
C         -4.07656       -2.88471       -0.73290
H         -2.35521       -1.63946       -1.00866
C         -5.93636       -1.87365        0.40519
H         -5.64650        0.16825        1.01392
C         -5.36338       -2.96790       -0.22413
H         -3.63239       -3.74007       -1.21954
H         -6.93835       -1.94107        0.80188
H         -5.92024       -3.88864       -0.31712
C          2.20729        0.46646        0.02145
H          2.67277        0.57854        0.97973
H          1.26930       -0.04291       -0.03648
H          2.75871        0.64256       -0.88100
I          3.02231       -2.06220        0.12630
