42
-60.34428146
C         -0.51249        1.84452        1.07910
C         -1.22949        1.81619       -0.27748
C         -0.24689        1.82365       -1.44980
C          0.67023        2.80988        1.06023
C          0.90457        2.79681       -1.19924
C          0.20827        4.22034        0.63568
C          0.36619        4.21113       -0.89370
H         -1.22203        2.15029        1.84978
H         -0.77121        2.10899       -2.36301
H          0.83136        4.98649        1.09627
H         -0.17463        0.83879        1.32884
H         -1.91084        2.67368       -0.34177
H          0.13680        0.81541       -1.59738
H          1.15824        2.80608        2.03716
H          1.58221        2.78562       -2.05581
H         -0.81820        4.40126        0.94534
H          1.07153        4.97233       -1.22629
H         -0.57503        4.38940       -1.40823
N          1.62105        2.40291        0.01860
C          2.90088        3.08663        0.15038
H          3.55770        2.78466       -0.66344
H          2.80666        4.17347        0.13037
H          3.36560        2.80029        1.09205
O         -2.01854        0.63111       -0.38446
C         -3.23064        0.65883        0.19311
O         -3.66364        1.63080        0.76601
C         -3.96058       -0.61856        0.03988
C         -5.26015       -0.69893        0.53637
C         -3.38255       -1.72788       -0.57284
C         -5.97463       -1.87522        0.41807
H         -5.68761        0.17209        1.00968
C         -4.10288       -2.90210       -0.68579
H         -2.37511       -1.66375       -0.95232
C         -5.39631       -2.97713       -0.19273
H         -6.98182       -1.93622        0.80242
H         -3.65462       -3.76336       -1.15808
H         -5.95421       -3.89746       -0.28354
C          2.21200        0.45152        0.04017
H          2.70561        0.58292        0.97717
H          1.21128        0.06951        0.04766
H          2.75374        0.64868       -0.86658
I          3.07255       -2.03447        0.06842
