42
-60.34152424
C         -0.52866        1.85763        1.10020
C         -1.23370        1.81395       -0.26278
C         -0.24227        1.81056       -1.42819
C          0.65804        2.81866        1.08059
C          0.90853        2.78520       -1.17793
C          0.19986        4.22540        0.63945
C          0.36678        4.20177       -0.88901
H         -1.24387        2.17903        1.85934
H         -0.75984        2.09153       -2.34665
H          0.82030        4.99564        1.09660
H         -0.20225        0.85309        1.37121
H         -1.91504        2.67026       -0.34149
H          0.13784        0.79977       -1.56924
H          1.13897        2.82240        2.06092
H          1.59216        2.76649       -2.02944
H         -0.82842        4.40995        0.94081
H          1.07255        4.96096       -1.22509
H         -0.57179        4.37374       -1.41045
N          1.61865        2.40708        0.04902
C          2.89273        3.10288        0.18399
H          2.79355        4.18860        0.14367
H          3.34630        2.83467        1.13620
H          3.56013        2.78857       -0.61616
O         -2.02124        0.62754       -0.36324
C         -3.24103        0.66380        0.19783
O         -3.68059        1.64427        0.75093
C         -3.96992       -0.61483        0.05239
C         -3.37703       -1.73990       -0.51582
C         -5.28438       -0.67979        0.51060
C         -4.09788       -2.91435       -0.62330
H         -2.35785       -1.68815       -0.86458
C         -5.99928       -1.85627        0.39742
H         -5.72297        0.20332        0.95011
C         -5.40635       -2.97384       -0.16938
H         -3.63821       -3.78790       -1.06066
H         -7.01819       -1.90515        0.75140
H         -5.96468       -3.89430       -0.25616
C          2.22935        0.47907        0.06953
H          2.72848        0.61173       -0.87032
H          2.80868        0.53927        0.97047
H          1.19476        0.21042        0.11387
I          3.08456       -2.04288        0.03418
