42
-60.34396586
C         -0.52602        1.83802        1.08040
C         -1.24143        1.80800       -0.27722
C         -0.25811        1.81362       -1.44924
C          0.65807        2.80197        1.06139
C          0.89527        2.78455       -1.19795
C          0.19716        4.21171        0.63356
C          0.35680        4.19959       -0.89571
H         -1.23613        2.14761        1.84911
H         -0.78133        2.10204       -2.36218
H          0.81977        4.97857        1.09353
H         -0.19207        0.83181        1.33433
H         -1.92194        2.66599       -0.34343
H          0.12120        0.80405       -1.60021
H          1.14436        2.79982        2.03920
H          1.57413        2.77101       -2.05343
H         -0.82966        4.39358        0.94154
H          1.06217        4.96031       -1.22921
H         -0.58397        4.37692       -1.41139
N          1.61145        2.39400        0.02188
C          2.88807        3.08545        0.15224
H          3.54780        2.77908       -0.65738
H          2.78963        4.17153        0.12381
H          3.35163        2.80804        1.09707
O         -2.03144        0.62359       -0.38243
C         -3.24730        0.65648        0.18740
O         -3.68274        1.63300        0.75054
C         -3.97782       -0.62082        0.03755
C         -3.39105       -1.73999       -0.54838
C         -5.28671       -0.69123        0.51056
C         -4.11202       -2.91412       -0.65818
H         -2.37630       -1.68373       -0.90915
C         -6.00182       -1.86742        0.39519
H         -5.72081        0.18724        0.96365
C         -5.41479       -2.97919       -0.18885
H         -3.65694       -3.78305       -1.10940
H         -7.01629       -1.92069        0.76110
H         -5.97321       -3.89943       -0.27725
C          2.21272        0.45711        0.05699
H          2.67708        0.59717        1.01391
H          1.19577        0.13153        0.03424
H          2.75545        0.61721       -0.85740
I          3.10038       -2.02513        0.06769
