42
-60.34544109
C         -0.17470        1.72423        1.57228
C         -1.20115        1.78489        0.43934
C         -0.53847        1.89604       -0.94056
C          0.97405        2.70338        1.33079
C          0.64716        2.85833       -0.90934
C          0.42885        4.13542        1.13839
C          0.20524        4.23932       -0.37893
H         -0.66186        1.96575        2.51829
H         -1.27725        2.24987       -1.66172
H          1.15102        4.87329        1.48699
H          0.20289        0.70607        1.65711
H         -1.87886        2.63562        0.58199
H         -0.21542        0.90673       -1.26545
H          1.68634        2.63621        2.15613
H          1.09295        2.91794       -1.90474
H         -0.48862        4.28275        1.70319
H          0.80841        5.03357       -0.81794
H         -0.83352        4.43711       -0.63222
N          1.64001        2.38210        0.06239
C          2.90916        3.08770       -0.07224
H          2.81052        4.17029        0.02028
H          3.59669        2.73967        0.69658
H          3.34285        2.86730       -1.04611
O         -1.98609        0.59375        0.50440
C         -3.22814        0.65917       -0.00131
O         -3.69331        1.66830       -0.47620
C         -3.94776       -0.62970        0.09778
C         -3.32621       -1.78550        0.56445
C         -5.28241       -0.67229       -0.30045
C         -4.03842       -2.96820        0.63131
H         -2.29162       -1.75057        0.86686
C         -5.98865       -1.85728       -0.22812
H         -5.74354        0.23459       -0.66150
C         -5.36699       -3.00555        0.23741
H         -3.55639       -3.86535        0.98986
H         -7.02330       -1.88887       -0.53540
H         -5.91850       -3.93259        0.29183
C          2.24010        0.43531       -0.15111
H          2.85591        0.57422        0.71511
H          1.21708        0.16575       -0.00816
H          2.55945        0.76029       -1.12714
I          3.03434       -2.00101       -0.32915
