42
-60.34299622
C         -0.39216        1.94727        1.35763
C         -1.26358        1.83086        0.10538
C         -0.42701        1.74295       -1.17840
C          0.78614        2.89291        1.12535
C          0.75083        2.71440       -1.13882
C          0.28259        4.27531        0.65566
C          0.25590        4.15305       -0.87683
H         -0.99495        2.31922        2.18761
H         -1.06399        1.97569       -2.03340
H          0.96093        5.06356        0.98116
H         -0.03698        0.95674        1.63933
H         -1.94477        2.68771        0.03241
H         -0.07054        0.72082       -1.30679
H          1.38672        2.95377        2.03549
H          1.32183        2.63213       -2.06608
H         -0.69826        4.49497        1.07053
H          0.91686        4.88094       -1.34654
H         -0.74014        4.30063       -1.28719
N          1.60621        2.40239        0.01200
C          2.89211        3.08493       -0.05873
H          2.79726        4.16813       -0.15075
H          3.46349        2.86513        0.84110
H          3.44825        2.71566       -0.91829
O         -2.06364        0.65634        0.24386
C         -3.22665        0.63555       -0.42755
O         -3.61039        1.55865       -1.10639
C         -3.97130       -0.62749       -0.23192
C         -5.23862       -0.74020       -0.80028
C         -3.43753       -1.69291        0.48918
C         -5.96561       -1.90445       -0.64505
H         -5.63162        0.09667       -1.35762
C         -4.16981       -2.85569        0.63812
H         -2.45421       -1.60462        0.92316
C         -5.43154       -2.96253        0.07395
H         -6.94801       -1.99030       -1.08482
H         -3.75560       -3.68328        1.19427
H         -5.99907       -3.87361        0.19364
C          2.21508        0.45002        0.12294
H          2.63978        0.55363       -0.85606
H          2.82981        0.59355        0.99072
H          1.18469        0.18848        0.24568
I          3.10572       -2.03172        0.18271
