42
-60.34382411
C         -0.16841        1.74076        1.58428
C         -1.19484        1.79981        0.45126
C         -0.53129        1.91193       -0.92819
C          0.97468        2.72710        1.34667
C          0.65112        2.87755       -0.89732
C          0.42520        4.15650        1.14937
C          0.20642        4.25825       -0.36921
H         -0.65725        1.97509        2.53115
H         -1.27050        2.26274       -1.65030
H          1.14341        4.89756        1.49937
H          0.21622        0.72506        1.66314
H         -1.87420        2.64950        0.59323
H         -0.20397        0.92402       -1.25231
H          1.68601        2.66441        2.17310
H          1.10008        2.93437       -1.89111
H         -0.49479        4.30137        1.71065
H          0.81052        5.05262       -0.80666
H         -0.83163        4.45523       -0.62595
N          1.64290        2.41216        0.07938
C          2.91593        3.10772       -0.05888
H          3.60379        2.75503        0.70734
H          3.34289        2.88332       -1.03450
H          2.82232        4.19080        0.03442
O         -1.97784        0.60785        0.51681
C         -3.21722        0.67020        0.00319
O         -3.67830        1.67711       -0.48046
C         -3.93896       -0.61665        0.10766
C         -3.32462       -1.76790        0.59484
C         -5.26901       -0.66192       -0.30565
C         -4.03953       -2.94865        0.66704
H         -2.29359       -1.73108        0.90890
C         -5.97785       -1.84497       -0.22811
H         -5.72433        0.24138       -0.68268
C         -5.36347       -2.98861        0.25808
H         -3.56324       -3.84227        1.04164
H         -7.00878       -1.87867       -0.54738
H         -5.91712       -3.91410        0.31697
C          2.23692        0.47493       -0.10463
H          1.22720        0.13407       -0.03293
H          2.69390        0.64082       -1.06233
H          2.82351        0.55614        0.78929
I          3.02258       -2.03599       -0.35769
