42
tsa_conformer11.log	Energy: -706580.4076971
C         -0.05155        1.72778       -1.08568
C          0.63531        1.82432        0.28322
C         -0.32911        1.64099        1.45591
C         -1.40602        2.43577       -1.08415
C         -1.65291        2.36444        1.20527
C         -1.27537        3.91365       -0.64446
C         -1.43677        3.86494        0.89434
H          0.59653        2.18656       -1.84587
H          0.12850        2.03751        2.37413
H         -2.05431        4.53378       -1.10879
H         -0.16992        0.67188       -1.36584
H          1.12875        2.80558        0.35596
H         -0.50272        0.57090        1.63226
H         -1.88888        2.32180       -2.06475
H         -2.33510        2.19698        2.05054
H         -0.30953        4.33253       -0.95849
H         -2.29558        4.46416        1.22640
H         -0.55761        4.25410        1.42612
N         -2.27648        1.83630       -0.03727
C         -3.67769        2.23648       -0.17503
H         -3.81538        3.32791       -0.14403
H         -4.06941        1.86273       -1.13064
H         -4.26479        1.78747        0.63749
O          1.63635        0.82208        0.40149
C          2.83847        1.07346       -0.14385
O          3.11093        2.12275       -0.67151
C          3.76935       -0.08155       -0.01599
C          5.09160        0.09257       -0.43955
C          3.35253       -1.31682        0.49367
C          5.99510       -0.96105       -0.34673
H          5.39172        1.06270       -0.83977
C          4.25938       -2.36984        0.57941
H          2.31805       -1.45170        0.81131
C          5.57866       -2.19205        0.16250
H          7.02749       -0.82466       -0.67488
H          3.93254       -3.33528        0.97034
H          6.28719       -3.02053        0.23170
C         -2.38491       -0.12685       -0.08101
H         -1.32609       -0.33361       -0.02760
H         -2.98061       -0.18308        0.82513
H         -2.87891       -0.15966       -1.04768
I         -2.55172       -2.83544       -0.09923
