42
tsa_conformer3.log	Energy: -706580.4075904
C          0.32923        1.64103        1.45593
C         -0.63516        1.82439        0.28322
C          0.05171        1.72776       -1.08566
C          1.65309        2.36438        1.20529
C          1.40622        2.43567       -1.08414
C          1.43707        3.86488        0.89432
C          1.27567        3.91357       -0.64448
H         -0.12837        2.03761        2.37414
H         -0.59633        2.18655       -1.84588
H          2.29594        4.46404        1.22636
H          0.50278        0.57094        1.63232
H         -1.12852        2.80569        0.35593
H          0.17004        0.67184       -1.36578
H          2.33525        2.19688        2.05058
H          1.88909        2.32165       -2.06473
H          0.55795        4.25414        1.42609
H          2.05465        4.53364       -1.10883
H          0.30985        4.33250       -0.95851
N          2.27663        1.83616       -0.03723
C          3.67787        2.23623       -0.17499
H          3.81563        3.32765       -0.14404
H          4.26492        1.78722        0.63756
H          4.06957        1.86241       -1.13058
O         -1.63627        0.82222        0.40152
C         -2.83836        1.07361       -0.14389
O         -3.11075        2.12287       -0.67166
C         -3.76929       -0.08135       -0.01600
C         -3.35254       -1.31660        0.49378
C         -5.09151        0.09279       -0.43963
C         -4.25943       -2.36958        0.57956
H         -2.31808       -1.45150        0.81147
C         -5.99505       -0.96078       -0.34678
H         -5.39157        1.06290       -0.83994
C         -5.57869       -2.19177        0.16256
H         -3.93265       -3.33500        0.97057
H         -7.02742       -0.82438       -0.67499
H         -6.28725       -3.02022        0.23179
C          2.38487       -0.12698       -0.08098
H          2.98070       -0.18323        0.82508
H          1.32603       -0.33363       -0.02743
H          2.87872       -0.15984       -1.04773
I          2.55141       -2.83557       -0.09925
