42
tsa_conformer13.log	Energy: -706580.4067182
C         -0.05146        1.72786       -1.08568
C          0.63532        1.82429        0.28326
C         -0.32915        1.64087        1.45589
C         -1.40594        2.43584       -1.08416
C         -1.65294        2.36435        1.20524
C         -1.27531        3.91369       -0.64436
C         -1.43679        3.86487        0.89443
H          0.59664        2.18671       -1.84580
H          0.12842        2.03731        2.37417
H         -2.05422        4.53386       -1.10869
H         -0.16981        0.67198       -1.36593
H          1.12877        2.80554        0.35610
H         -0.50279        0.57077        1.63214
H         -1.88875        2.32194       -2.06480
H         -2.33516        2.19683        2.05047
H         -0.30945        4.33258       -0.95831
H         -2.29562        4.46406        1.22649
H         -0.55766        4.25400        1.42628
N         -2.27646        1.83630       -0.03737
C         -3.67765        2.23651       -0.17517
H         -4.26480        1.78744        0.63728
H         -3.81533        3.32794       -0.14408
H         -4.06932        1.86286       -1.13084
O          1.63636        0.82204        0.40151
C          2.83850        1.07345       -0.14378
O          3.11097        2.12276       -0.67138
C          3.76937       -0.08157       -0.01598
C          3.35252       -1.31688        0.49356
C          5.09164        0.09258       -0.43946
C          4.25935       -2.36992        0.57925
H          2.31802       -1.45179        0.81113
C          5.99512       -0.96105       -0.34669
H          5.39178        1.06274       -0.83958
C          5.57866       -2.19210        0.16241
H          3.93249       -3.33539        0.97008
H          7.02754       -0.82464       -0.67477
H          6.28718       -3.02059        0.23158
C         -2.38492       -0.12684       -0.08114
H         -2.87916       -0.15968       -1.04769
H         -1.32608       -0.33358       -0.02803
H         -2.98040       -0.18300        0.82516
I         -2.55176       -2.83540       -0.09920
