42
-60.34324790
C         -0.14398        1.75699        1.59646
C         -1.16918        1.81027        0.46215
C         -0.50419        1.91503       -0.91707
C          1.00256        2.73744        1.35272
C          0.67766        2.88133       -0.89034
C          0.45699        4.16780        1.15175
C          0.23526        4.26411       -0.36652
H         -0.63259        1.99986        2.54128
H         -1.24307        2.26030       -1.64210
H          1.17787        4.90823        1.49760
H          0.23757        0.74080        1.68342
H         -1.84912        2.66032        0.59918
H         -0.17425        0.92529       -1.23234
H          1.71453        2.67498        2.17865
H          1.12463        2.93681       -1.88540
H         -0.46146        4.31719        1.71436
H          0.83875        5.05658       -0.80834
H         -0.80320        4.46045       -0.62206
N          1.66930        2.41252        0.08580
C          2.94255        3.10877       -0.05096
H          3.37767        2.88110       -1.02254
H          2.84660        4.19201        0.03501
H          3.62702        2.76286        0.72157
O         -1.95123        0.61793        0.53320
C         -3.18466        0.67227        0.00491
O         -3.64283        1.67338       -0.49337
C         -3.90386       -0.61587        0.11192
C         -3.29558       -1.75805        0.62723
C         -5.22462       -0.67216       -0.32886
C         -4.00722       -2.94073        0.69988
H         -2.27167       -1.71267        0.96266
C         -5.93018       -1.85717       -0.25119
H         -5.67532        0.22422       -0.72737
C         -5.32184       -2.99174        0.26303
H         -3.53557       -3.82733        1.09641
H         -6.95381       -1.89949       -0.59220
H         -5.87288       -3.91878        0.32203
C          2.23925        0.47395       -0.13214
H          2.88619        0.59311        0.71424
H          1.25440        0.09777        0.03827
H          2.55457        0.79619       -1.11148
I          2.96179       -2.04415       -0.36537
