42
-60.34432407
C         -0.51001        1.84248        1.07894
C         -1.23242        1.81731       -0.27480
C         -0.25493        1.82882       -1.45147
C          0.67009        2.81116        1.05848
C          0.89898        2.79926       -1.20178
C          0.20597        4.22137        0.63552
C          0.36173        4.21380       -0.89414
H         -1.21745        2.14307        1.85355
H         -0.78271        2.11949       -2.36105
H          0.82926        4.98760        1.09573
H         -0.16717        0.83691        1.32231
H         -1.91461        2.67449       -0.33407
H          0.12572        0.82061       -1.60714
H          1.16029        2.80796        2.03435
H          1.57526        2.78722       -2.05928
H         -0.82018        4.40113        0.94693
H          1.06719        4.97487       -1.22673
H         -0.58010        4.39336       -1.40710
N          1.61791        2.40602        0.01446
C          2.89982        3.08644        0.14024
H          2.80864        4.17372        0.12006
H          3.36866        2.79937        1.07958
H          3.55067        2.78078       -0.67680
O         -2.02120        0.63201       -0.38223
C         -3.23115        0.65740        0.19991
O         -3.66189        1.62697        0.77853
C         -3.96242       -0.61881        0.04306
C         -5.26043       -0.70056        0.54341
C         -3.38765       -1.72538       -0.57763
C         -5.97666       -1.87533        0.42082
H         -5.68531        0.16829        1.02299
C         -4.10972       -2.89812       -0.69487
H         -2.38134       -1.66034       -0.95991
C         -5.40168       -2.97441       -0.19816
H         -6.98268       -1.93732        0.80810
H         -3.66403       -3.75722       -1.17348
H         -5.96103       -3.89349       -0.29257
C          2.21354        0.45017        0.06561
H          1.21508        0.07917       -0.01443
H          2.80027        0.56487       -0.82197
H          2.65572        0.58804        1.03432
I          3.07748       -2.03558        0.06604
