42
-60.34352389
C         -0.50169        1.84435        1.06214
C         -1.22642        1.82444       -0.29085
C         -0.25254        1.84133       -1.47089
C          0.68307        2.80785        1.04236
C          0.90744        2.80395       -1.21760
C          0.22161        4.22096        0.62586
C          0.37474        4.21911       -0.90398
H         -1.20671        2.14891        1.83748
H         -0.78195        2.14473       -2.37543
H          0.84687        4.98409        1.08846
H         -0.16668        0.83602        1.30631
H         -1.90891        2.68168       -0.34519
H          0.11970        0.83191       -1.64099
H          1.17428        2.80024        2.01778
H          1.58181        2.79247       -2.07658
H         -0.80371        4.40158        0.93949
H          1.08131        4.97967       -1.23526
H         -0.56767        4.40300       -1.41434
N          1.62962        2.40345       -0.00434
C          2.90767        3.09389        0.11922
H          3.38472        2.80384        1.05356
H          3.55555        2.79836       -0.70387
H          2.80999        4.18049        0.10725
O         -2.01489        0.63912       -0.40051
C         -3.22527        0.66291        0.18079
O         -3.65873        1.63254        0.75721
C         -3.95299       -0.61560        0.02612
C         -3.36921       -1.72647       -0.57825
C         -5.25611       -0.69560        0.51330
C         -4.08755       -2.90179       -0.69256
H         -2.35874       -1.66302       -0.94968
C         -5.96860       -1.87293        0.39348
H         -5.68787        0.17650        0.98068
C         -5.38467       -2.97633       -0.20925
H         -3.63477       -3.76430       -1.15821
H         -6.97857       -1.93365        0.77054
H         -5.94100       -3.89751       -0.30113
C          2.22971        0.45397        0.06037
H          1.20264        0.18391       -0.06340
H          2.86336        0.57576       -0.79931
H          2.60201        0.65403        1.04884
I          3.05685       -2.04359        0.09750
