42
-60.34378650
C         -0.34087        1.91515        1.31927
C         -1.23729        1.82709        0.08289
C         -0.42538        1.76815       -1.21792
C          0.82835        2.87126        1.08680
C          0.75122        2.74032       -1.18026
C          0.31571        4.26231        0.65516
C          0.26279        4.17325       -0.87896
H         -0.92790        2.26018        2.17176
H         -1.07878        2.01488       -2.05638
H          0.99884        5.04443        0.98558
H          0.02801        0.92004        1.56221
H         -1.92053        2.68450        0.04222
H         -0.06548        0.75099       -1.37113
H          1.44604        2.91486        1.98647
H          1.30588        2.67633       -2.11876
H         -0.65800        4.47174        1.09156
H          0.91737        4.91022       -1.34353
H         -0.73977        4.33106       -1.26915
N          1.62547        2.40381       -0.05157
C          2.91651        3.07254       -0.13370
H          3.44320        2.72988       -1.02242
H          2.82989        4.15929       -0.18360
H          3.51146        2.81486        0.74060
O         -2.03341        0.64872        0.21077
C         -3.20805        0.63962       -0.44012
O         -3.60462        1.57523       -1.09411
C         -3.94759       -0.62829       -0.25658
C         -5.21928       -0.73664       -0.81597
C         -3.40503       -1.70229        0.44502
C         -5.94151       -1.90527       -0.67171
H         -5.61936        0.10702       -1.35781
C         -4.13262       -2.86932        0.58321
H         -2.41885       -1.61701        0.87300
C         -5.39848       -2.97197        0.02756
H         -6.92724       -1.98777       -1.10463
H         -3.71155       -3.70339        1.12430
H         -5.96231       -3.88644        0.13866
C          2.20829        0.44626        0.05939
H          2.73884        0.61038        0.96755
H          1.21890        0.03646        0.10892
H          2.76567        0.51094       -0.85460
I          3.05976       -2.02697        0.25056
