42
-60.34466953
C         -0.45433        1.85825        1.06516
C         -1.18178        1.83944       -0.28640
C         -0.21114        1.86161       -1.46901
C          0.73169        2.81973        1.04394
C          0.94724        2.82619       -1.21686
C          0.26930        4.23498        0.63563
C          0.41516        4.23951       -0.89485
H         -1.15729        2.16310        1.84232
H         -0.74408        2.16479       -2.37153
H          0.89728        4.99578        1.09841
H         -0.11971        0.84981        1.30877
H         -1.86728        2.69448       -0.33732
H          0.16473        0.85394       -1.64012
H          1.22769        2.80645        2.01679
H          1.61804        2.82006       -2.07882
H         -0.75446        4.41503        0.95459
H          1.11997        5.00175       -1.22617
H         -0.52973        4.42497       -1.40006
N          1.67306        2.41885       -0.00867
C          2.95360        3.10332        0.11675
H          3.60042        2.81171       -0.70878
H          2.85960        4.19044        0.11145
H          3.42983        2.80591        1.04925
O         -1.96618        0.65149       -0.39583
C         -3.18158        0.67400        0.17480
O         -3.62478        1.64566        0.74028
C         -3.90113       -0.60960        0.02393
C         -3.30246       -1.72501       -0.55709
C         -5.21135       -0.69009        0.49151
C         -4.01312       -2.90535       -0.66771
H         -2.28642       -1.66145       -0.91290
C         -5.91621       -1.87236        0.37512
H         -5.65477        0.18565        0.94083
C         -5.31738       -2.98034       -0.20413
H         -3.54858       -3.77144       -1.11473
H         -6.93189       -1.93331        0.73648
H         -5.86772       -3.90539       -0.29310
C          2.26134        0.45968        0.01529
H          2.73119        0.61357        0.96462
H          1.23566        0.15655       -0.03061
H          2.84405        0.64122       -0.87105
I          2.95840       -2.06432        0.10125
