42
-60.34422885
C         -0.46458        1.86240        1.07794
C         -1.18524        1.83633       -0.27724
C         -0.20864        1.85117       -1.45518
C          0.72194        2.82352        1.05790
C          0.95092        2.81401       -1.20164
C          0.26348        4.23636        0.63742
C          0.41817        4.23005       -0.89220
H         -1.17162        2.17197        1.84948
H         -0.73628        2.15271       -2.36136
H          0.88984        4.99944        1.09864
H         -0.13188        0.85500        1.32875
H         -1.86976        2.69165       -0.33636
H          0.16411        0.84157       -1.62224
H          1.21132        2.81694        2.03424
H          1.62723        2.80067       -2.05911
H         -0.76185        4.41977        0.94941
H          1.12487        4.98979       -1.22510
H         -0.52383        4.41242       -1.40385
N          1.66983        2.41499        0.01398
C          2.94878        3.10326        0.13906
H          3.60208        2.79718       -0.67598
H          2.85413        4.18993        0.11419
H          3.41808        2.82303        1.08038
O         -1.96987        0.64842       -0.38436
C         -3.18533        0.67243        0.18622
O         -3.62791        1.64537        0.74999
C         -3.90553       -0.61091        0.03695
C         -3.30816       -1.72645       -0.54521
C         -5.21488       -0.69109        0.50705
C         -4.01926       -2.90664       -0.65448
H         -2.29287       -1.66301       -0.90318
C         -5.92012       -1.87328        0.39216
H         -5.65722        0.18468        0.95740
C         -5.32263       -2.98137       -0.18829
H         -3.55584       -3.77271       -1.10270
H         -6.93500       -1.93413        0.75580
H         -5.87332       -3.90632       -0.27619
C          2.25759        0.46392        0.06950
H          1.23015        0.18270       -0.02665
H          2.86926        0.59811       -0.80089
H          2.68622        0.66053        1.03549
I          2.96621       -2.06052        0.07005
