42
tsa_conformer18.log	Energy: -706580.4078163
C         -0.05132        1.72781       -1.08568
C          0.63550        1.82422        0.28324
C         -0.32897        1.64085        1.45588
C         -1.40573        2.43592       -1.08415
C         -1.65270        2.36446        1.20526
C         -1.27496        3.91376       -0.64435
C         -1.43641        3.86495        0.89445
H          0.59682        2.18659       -1.84583
H          0.12865        2.03723        2.37417
H         -2.05383        4.53399       -1.10866
H         -0.16977        0.67193       -1.36590
H          1.12897        2.80546        0.35608
H         -0.50269        0.57076        1.63211
H         -1.88857        2.32206       -2.06477
H         -2.33492        2.19699        2.05051
H         -0.30907        4.33257       -0.95832
H         -2.29518        4.46423        1.22652
H         -0.55723        4.25400        1.42627
N         -2.27629        1.83646       -0.03733
C         -3.67745        2.23680       -0.17511
H         -3.81502        3.32824       -0.14395
H         -4.06915        1.86324       -1.13080
H         -4.26464        1.78773        0.63731
O          1.63650        0.82193        0.40148
C          2.83864        1.07326       -0.14384
O          3.11117        2.12254       -0.67148
C          3.76946       -0.08180       -0.01600
C          5.09171        0.09225       -0.43956
C          3.35257       -1.31705        0.49366
C          5.99515       -0.96142       -0.34675
H          5.39189        1.06236       -0.83977
C          4.25936       -2.37012        0.57939
H          2.31808       -1.45188        0.81130
C          5.57865       -2.19241        0.16247
H          7.02755       -0.82509       -0.67490
H          3.93247       -3.33555        0.97032
H          6.28713       -3.02093        0.23167
C         -2.38499       -0.12668       -0.08107
H         -1.32619       -0.33356       -0.02785
H         -2.98053       -0.18283        0.82518
H         -2.87917       -0.15943       -1.04766
I         -2.55215       -2.83524       -0.09922
