42
-60.34350662
C         -0.15679        1.74489        1.59342
C         -1.18666        1.80256        0.46372
C         -0.52604        1.91052       -0.91725
C          0.98550        2.73095        1.35115
C          0.65438        2.87832       -0.89218
C          0.43669        4.16043        1.15327
C          0.21125        4.25959       -0.36453
H         -0.64248        1.97913        2.54191
H         -1.26750        2.25561       -1.63971
H          1.15762        4.90120        1.49834
H          0.22904        0.72964        1.67019
H         -1.86488        2.65320        0.60556
H         -0.19477        0.92228       -1.23572
H          1.69960        2.66929        2.17534
H          1.10042        2.93378       -1.88734
H         -0.48050        4.30760        1.71853
H          0.81323        5.05350       -0.80578
H         -0.82795        4.45563       -0.61726
N          1.64830        2.41372        0.08211
C          2.92399        3.10176       -0.06323
H          3.61230        2.75147        0.70374
H          3.34745        2.86873       -1.03834
H          2.83484        4.18591        0.02313
O         -1.97046        0.61135        0.53401
C         -3.20542        0.67003        0.00938
O         -3.66237        1.67380       -0.48468
C         -3.92751       -0.61659        0.11392
C         -3.32323       -1.76042        0.63027
C         -5.24710       -0.66973       -0.33081
C         -4.03751       -2.94170        0.69963
H         -2.30036       -1.71733        0.96920
C         -5.95528       -1.85338       -0.25653
H         -5.69475        0.22796       -0.72982
C         -5.35080       -2.98968        0.25843
H         -3.56896       -3.82961        1.09690
H         -6.97794       -1.89328       -0.60074
H         -5.90385       -3.91568        0.31473
C          2.23303        0.47233       -0.10357
H          2.69687        0.60560       -1.06372
H          2.81535        0.56277        0.78854
H          1.24523        0.07796       -0.01893
I          3.00391       -2.03582       -0.36737
