42
-60.34396708
C         -0.34654        1.77968        1.35578
C         -1.22559        1.79009        0.09950
C         -0.39300        1.85084       -1.18641
C          0.81900        2.75880        1.22475
C          0.77385        2.82703       -1.04496
C          0.29771        4.17795        0.91064
C          0.26529        4.22323       -0.62576
H         -0.95115        2.05126        2.22292
H         -1.02983        2.16473       -2.01528
H          0.96789        4.93444        1.31802
H          0.02422        0.76934        1.52575
H         -1.92096        2.63711        0.13664
H         -0.02413        0.85295       -1.42071
H          1.42367        2.72719        2.13366
H          1.34124        2.85293       -1.97786
H         -0.68414        4.33820        1.34950
H          0.91708        5.00462       -1.01566
H         -0.73428        4.40585       -1.01281
N          1.63755        2.40028        0.06112
C          2.91805        3.09557        0.05909
H          3.47112        2.82911       -0.83969
H          2.81435        4.18148        0.08925
H          3.49747        2.78207        0.92545
O         -2.00576        0.59446        0.07908
C         -3.34271        0.71063        0.12260
O         -3.91654        1.77208        0.17998
C         -4.01998       -0.60494        0.09155
C         -3.30810       -1.80036        0.02479
C         -5.41277       -0.62882        0.13042
C         -3.98818       -3.00337       -0.00241
H         -2.23035       -1.78003       -0.00549
C         -6.08564       -1.83491        0.10274
H         -5.94464        0.30919        0.18193
C         -5.37374       -3.02255        0.03635
H         -3.43669       -3.93014       -0.05414
H         -7.16486       -1.85187        0.13275
H         -5.89972       -3.96563        0.01468
C          2.25332        0.44996       -0.04528
H          2.69153        0.65737       -1.00386
H          2.85303        0.53545        0.83528
H          1.24214        0.11500        0.05193
I          3.11241       -2.03088       -0.17052
