42
-60.34376754
C         -0.36095        1.92184        1.33821
C         -1.24886        1.82279        0.09614
C         -0.42941        1.75231       -1.19983
C          0.81286        2.87231        1.10443
C          0.75164        2.71943       -1.16178
C          0.30461        4.25946        0.65577
C          0.26312        4.15582       -0.87781
H         -0.95325        2.28007        2.18159
H         -1.07680        2.00022       -2.04266
H          0.98488        5.04473        0.98441
H          0.00040        0.92798        1.59838
H         -1.93074        2.68067        0.04331
H         -0.07862        0.73118       -1.34969
H          1.42356        2.92382        2.00844
H          1.31210        2.64604       -2.09617
H         -0.67246        4.47312        1.08250
H          0.92098        4.88804       -1.34511
H         -0.73652        4.31057       -1.27662
N          1.62041        2.39350       -0.02377
C          2.90494        3.07814       -0.10403
H          3.44520        2.72811       -0.98167
H          2.80632        4.16235       -0.17165
H          3.49441        2.84129        0.77974
O         -2.04737        0.64694        0.22989
C         -3.21210        0.62984       -0.43896
O         -3.59603        1.55658       -1.11285
C         -3.95727       -0.63333       -0.24773
C         -5.22069       -0.74681       -0.82466
C         -3.42826       -1.69788        0.47822
C         -5.94848       -1.91106       -0.67337
H         -5.60996        0.08946       -1.38551
C         -4.16147       -2.86055        0.62343
H         -2.44815       -1.60889        0.91923
C         -5.41922       -2.96822        0.05056
H         -6.92773       -1.99760       -1.11996
H         -3.75112       -3.68736        1.18357
H         -5.98745       -3.87924        0.16735
C          2.20923        0.46799        0.09943
H          1.19191        0.13945        0.13644
H          2.69580        0.56788       -0.84923
H          2.75073        0.65660        1.00810
I          3.07936       -2.02077        0.22052
