42
-60.34400521
C         -0.42851        1.88208        1.11326
C         -1.14527        1.84222       -0.24349
C         -0.16596        1.84873       -1.41917
C          0.75728        2.84360        1.08725
C          0.99239        2.81409       -1.17076
C          0.30045        4.25286        0.65347
C          0.45954        4.23293       -0.87537
H         -1.13780        2.19702        1.88051
H         -0.69168        2.14190       -2.32920
H          0.92582        5.01981        1.10970
H         -0.09301        0.87796        1.37274
H         -1.83272        2.69445       -0.31211
H          0.20792        0.83805       -1.57543
H          1.24436        2.84516        2.06477
H          1.67049        2.79476       -2.02694
H         -0.72573        4.43922        0.96081
H          1.16741        4.98954       -1.21306
H         -0.48092        4.41077       -1.39142
N          1.70718        2.42226        0.04975
C          2.98691        3.10878        0.17487
H          2.89459        4.19518        0.13438
H          3.44796        2.84121        1.12407
H          3.64747        2.79170       -0.63042
O         -1.92491        0.65030       -0.34232
C         -3.14829        0.67728        0.21016
O         -3.60355        1.65558        0.75420
C         -3.86118       -0.61087        0.06524
C         -3.24064       -1.73875       -0.46671
C         -5.18762       -0.68238        0.48608
C         -3.94597       -2.92240       -0.57599
H         -2.21207       -1.68234       -0.78576
C         -5.88720       -1.86790        0.37056
H         -5.64790        0.20281        0.89842
C         -5.26676       -2.98817       -0.16030
H         -3.46447       -3.79796       -0.98497
H         -6.91572       -1.92175        0.69489
H         -5.81319       -3.91560       -0.24876
C          2.28042        0.46257        0.09863
H          1.26516        0.13543        0.03707
H          2.79983        0.69878       -0.80460
H          2.77565        0.66990        1.03382
I          2.88278       -2.06889        0.01219
