42
-60.34291592
C         -0.32858        1.91611        1.32323
C         -1.22744        1.83087        0.08820
C         -0.41830        1.77588       -1.21481
C          0.83970        2.87391        1.09187
C          0.76134        2.74436       -1.17580
C          0.32576        4.26455        0.66140
C          0.27304        4.17700       -0.87291
H         -0.91452        2.25930        2.17720
H         -1.07258        2.03051       -2.05026
H          1.00765        5.04726        0.99292
H          0.03961        0.91997        1.56346
H         -1.91091        2.68830        0.05086
H         -0.06537        0.75753       -1.37732
H          1.45684        2.91845        1.99195
H          1.31577        2.68015       -2.11433
H         -0.64831        4.47228        1.09782
H          0.92693        4.91483       -1.33696
H         -0.72966        4.33504       -1.26261
N          1.63831        2.40940       -0.04736
C          2.92501        3.08766       -0.13413
H          3.45140        2.74324       -1.02220
H          2.83088        4.17327       -0.18863
H          3.52421        2.83836        0.73966
O         -2.02281        0.65232        0.21530
C         -3.19676        0.64252       -0.43724
O         -3.59215        1.57795       -1.09221
C         -3.93637       -0.62495       -0.25276
C         -5.21363       -0.72890       -0.80021
C         -3.38837       -1.70286        0.43861
C         -5.93635       -1.89691       -0.65349
H         -5.61772        0.11760       -1.33460
C         -4.11648       -2.86929        0.57904
H         -2.39755       -1.62130        0.85649
C         -5.38813       -2.96739        0.03593
H         -6.92656       -1.97596       -1.07673
H         -3.69122       -3.70639        1.11208
H         -5.95250       -3.88128        0.14908
C          2.22847        0.47718        0.08937
H          1.22725        0.10572        0.05429
H          2.82888        0.47356       -0.79849
H          2.68658        0.69697        1.03356
I          3.03722       -2.03947        0.23845
