42
-60.34484505
C         -0.17449        1.74958        1.60163
C         -1.18925        1.79807        0.45772
C         -0.51254        1.89670       -0.91618
C          0.97444        2.72861        1.36407
C          0.67224        2.85929       -0.88240
C          0.43274        4.15854        1.14940
C          0.22753        4.24650       -0.37161
H         -0.67211        1.99569        2.54090
H         -1.24405        2.24209       -1.64867
H          1.15119        4.89976        1.49865
H          0.20809        0.73441        1.69537
H         -1.87026        2.64867        0.58522
H         -0.18306        0.90542       -1.22696
H          1.67813        2.66991        2.19735
H          1.12987        2.90709       -1.87295
H         -0.49145        4.31237        1.70135
H          0.83792        5.03474       -0.81155
H         -0.80762        4.44408       -0.63938
N          1.65208        2.39330        0.10637
C          2.92896        3.08341       -0.02353
H          2.83667        4.16802        0.05064
H          3.60383        2.74335        0.76011
H          3.37302        2.84457       -0.98845
O         -1.97207        0.60582        0.52649
C         -3.21097        0.66385        0.01192
O         -3.67506        1.66766       -0.47508
C         -3.92878       -0.62528        0.11988
C         -3.30955       -1.77359        0.60770
C         -5.25938       -0.67602       -0.29078
C         -4.01984       -2.95689        0.68300
H         -2.27816       -1.73245        0.92000
C         -5.96377       -1.86157       -0.21001
H         -5.71879        0.22500       -0.66830
C         -5.34437       -3.00230        0.27658
H         -3.53950       -3.84820        1.05798
H         -6.99524       -1.89949       -0.52708
H         -5.89449       -3.92974        0.33784
C          2.22013        0.43837       -0.08464
H          1.22177        0.06200        0.03658
H          2.58837        0.74246       -1.03908
H          2.89582        0.57139        0.73721
I          3.00390       -2.01540       -0.38610
