42
-60.34413841
C         -0.34783        1.92681        1.33484
C         -1.23680        1.82802        0.09339
C         -0.41873        1.75947       -1.20359
C          0.82666        2.87663        1.09988
C          0.76225        2.72698       -1.16544
C          0.31663        4.26458        0.65457
C          0.27208        4.16267       -0.87894
H         -0.93933        2.28655        2.17821
H         -1.06720        2.00859       -2.04526
H          0.99771        5.04933        0.98280
H          0.01160        0.93252        1.59675
H         -1.91919        2.68552        0.04219
H         -0.06809        0.73850       -1.35596
H          1.43846        2.92708        2.00323
H          1.32149        2.65502       -2.10065
H         -0.65955        4.47752        1.08372
H          0.92829        4.89605       -1.34674
H         -0.72855        4.31673       -1.27553
N          1.63281        2.39957       -0.02963
C          2.91572        3.08716       -0.11156
H          3.45441        2.73749       -0.99027
H          2.81704        4.17168       -0.17888
H          3.50675        2.85062        0.77125
O         -2.03435        0.65126        0.22635
C         -3.20260        0.63603       -0.43603
O         -3.59223        1.56563       -1.10265
C         -3.94420       -0.62985       -0.24793
C         -5.20954       -0.74373       -0.82048
C         -3.40944       -1.69683        0.47017
C         -5.93334       -1.91096       -0.67297
H         -5.60347        0.09453       -1.37508
C         -4.13873       -2.86239        0.61177
H         -2.42779       -1.60751        0.90771
C         -5.39825       -2.97062        0.04295
H         -6.91411       -1.99783       -1.11620
H         -3.72376       -3.69112        1.16565
H         -5.96335       -3.88398        0.15671
C          2.23809        0.45722        0.09280
H          2.74974        0.54299       -0.84754
H          2.77003        0.65701        1.00264
H          1.20218        0.19380        0.13273
I          3.05126       -2.02875        0.22615
