42
-60.34267192
C         -0.20674        1.70202        1.56812
C         -1.23945        1.77396        0.44180
C         -0.58137        1.89429       -0.93943
C          0.93460        2.69111        1.33461
C          0.60076        2.86008       -0.90677
C          0.38464        4.12164        1.15130
C          0.15895        4.23607       -0.36539
H         -0.68994        1.92507        2.52052
H         -1.32322        2.24894       -1.65691
H          1.10384        4.86019        1.50452
H          0.17859        0.68555        1.63143
H         -1.91481        2.62516        0.59358
H         -0.25498        0.90804       -1.26938
H          1.64912        2.62245        2.15788
H          1.04454        2.92581       -1.90245
H         -0.53290        4.26157        1.71783
H          0.76065        5.03428       -0.79909
H         -0.88029        4.43501       -0.61574
N          1.59834        2.38491        0.06133
C          2.86828        3.08748       -0.07637
H          3.29207        2.87686       -1.05647
H          2.76852        4.16821        0.02984
H          3.56314        2.73035        0.68148
O         -2.02673        0.58488        0.50259
C         -3.26794        0.65577       -0.00605
O         -3.72488        1.66699       -0.48458
C         -3.99641       -0.62724        0.09719
C         -3.38879       -1.78142        0.58595
C         -5.32624       -0.66569       -0.31754
C         -4.11002       -2.95829        0.65816
H         -2.35808       -1.74956        0.90161
C         -6.04140       -1.84496       -0.24006
H         -5.77647        0.23978       -0.69546
C         -5.43368       -2.99151        0.24760
H         -3.63902       -3.85410        1.03420
H         -7.07217       -1.87340       -0.56035
H         -5.99231       -3.91397        0.30660
C          2.18351        0.47633       -0.13133
H          2.73117        0.61231        0.78411
H          1.19611        0.07905       -0.08173
H          2.57007        0.70415       -1.10855
I          3.12923       -2.00101       -0.33531
