42
-60.34394289
C         -0.50534        1.82843        1.06404
C         -1.23651        1.81539       -0.28516
C         -0.26610        1.83711       -1.46753
C          0.67273        2.79951        1.04499
C          0.88754        2.80778       -1.21706
C          0.20290        4.21218        0.63707
C          0.34919        4.21831       -0.89364
H         -1.20810        2.12087        1.84600
H         -0.79956        2.13434       -2.37166
H          0.82693        4.97605        1.10014
H         -0.15958        0.82122        1.29616
H         -1.91820        2.67371       -0.33266
H          0.11473        0.83063       -1.63390
H          1.16898        2.78849        2.01766
H          1.55826        2.80461       -2.07903
H         -0.82176        4.38674        0.95624
H          1.05077        4.98390       -1.22402
H         -0.59619        4.40027       -1.39918
N          1.61577        2.40673       -0.00856
C          2.89519        3.09267        0.11559
H          3.37098        2.79970        1.04958
H          3.54293        2.79813       -0.70800
H          2.79798        4.17940        0.10583
O         -2.02750        0.63217       -0.39784
C         -3.23295        0.65459        0.19406
O         -3.65715        1.62020        0.78405
C         -3.96782       -0.61887        0.03285
C         -5.26102       -0.70288        0.54521
C         -3.40094       -1.72092       -0.60294
C         -5.98026       -1.87550        0.41977
H         -5.67978        0.16245        1.03640
C         -4.12604       -2.89150       -0.72308
H         -2.39833       -1.65411       -0.99450
C         -5.41311       -2.97012       -0.21418
H         -6.98243       -1.93935        0.81658
H         -3.68648       -3.74717       -1.21338
H         -5.97474       -3.88759       -0.31069
C          2.21451        0.46042        0.02556
H          1.21410        0.08911       -0.05611
H          2.79485        0.59238       -0.86317
H          2.68224        0.58977        0.98175
I          3.08734       -2.03627        0.09333
