42
-60.34316387
C         -0.51532        1.81195        1.04034
C         -1.24670        1.79895       -0.30879
C         -0.27642        1.81868       -1.49135
C          0.66506        2.78020        1.02003
C          0.87786        2.78914       -1.24240
C          0.19642        4.19345        0.61295
C          0.34100        4.19976       -0.91795
H         -1.21713        2.10771        1.82192
H         -0.81001        2.11516       -2.39566
H          0.82137        4.95680        1.07557
H         -0.17347        0.80392        1.27487
H         -1.92728        2.65812       -0.35677
H          0.10327        0.81149       -1.65629
H          1.16251        2.76791        1.99199
H          1.54728        2.78639       -2.10546
H         -0.82777        4.36896        0.93310
H          1.04269        4.96494       -1.24905
H         -0.60484        4.38249       -1.42236
N          1.60756        2.38737       -0.03475
C          2.88595        3.07581        0.09069
H          3.53363        2.78687       -0.73490
H          2.78650        4.16215        0.08661
H          3.36300        2.77793        1.02237
O         -2.03922        0.61675       -0.42055
C         -3.24653        0.64283        0.16766
O         -3.67067        1.61074        0.75383
C         -3.98341       -0.62945        0.00684
C         -3.41309       -1.73731       -0.61565
C         -5.28237       -0.70620        0.50559
C         -4.14058       -2.90634       -0.73639
H         -2.40590       -1.67624       -0.99627
C         -6.00407       -1.87721        0.37931
H         -5.70367        0.16349        0.98680
C         -5.43354       -2.97757       -0.24153
H         -3.69835       -3.76654       -1.21623
H         -7.01084       -1.93530        0.76519
H         -5.99714       -3.89375       -0.33875
C          2.20786        0.45926       -0.01196
H          2.74931        0.60877       -0.92876
H          2.68893        0.53956        0.94136
H          1.20657        0.09157       -0.05563
I          3.11248       -2.00851        0.14705
