42
-60.34200794
C         -0.33415        1.94412        1.33450
C         -1.22382        1.84655        0.09359
C         -0.40593        1.77992       -1.20355
C          0.83815        2.89627        1.10122
C          0.77431        2.74786       -1.16497
C          0.32888        4.28403        0.65625
C          0.28556        4.18330       -0.87737
H         -0.92555        2.29925        2.17977
H         -1.05443        2.02856       -2.04531
H          1.00916        5.06900        0.98564
H          0.02954        0.95005        1.59038
H         -1.90794        2.70282        0.04370
H         -0.05398        0.75945       -1.35474
H          1.44967        2.94670        2.00479
H          1.33334        2.67751       -2.10058
H         -0.64778        4.49624        1.08458
H          0.94226        4.91692       -1.34416
H         -0.71472        4.33812       -1.27450
N          1.64475        2.41807       -0.02867
C          2.92889        3.10371       -0.10885
H          2.82805        4.18761       -0.17620
H          3.51942        2.86851        0.77475
H          3.47071        2.75557       -0.98643
O         -2.01862        0.66816        0.22534
C         -3.18932        0.65218       -0.43282
O         -3.58384        1.58319       -1.09460
C         -3.92654       -0.61636       -0.24592
C         -5.19828       -0.72845       -0.80451
C         -3.38122       -1.68773        0.45763
C         -5.91813       -1.89814       -0.65710
H         -5.60029        0.11309       -1.34822
C         -4.10652       -2.85582        0.59886
H         -2.39459       -1.59991        0.88407
C         -5.37258       -2.96214        0.04437
H         -6.90392       -1.98363       -1.08932
H         -3.68333       -3.68791        1.14132
H         -5.93460       -3.87742        0.15792
C          2.22522        0.48534        0.09058
H          2.74863        0.73167        1.00035
H          1.21779        0.13500        0.12726
H          2.66317        0.65400       -0.87426
I          3.02325       -2.06357        0.22350
