42
tsa_conformer20.log	Energy: -706580.4056201
C         -0.05184        1.72802       -1.08574
C          0.63494        1.82445        0.28320
C         -0.32949        1.64091        1.45585
C         -1.40643        2.43578       -1.08419
C         -1.65339        2.36419        1.20521
C         -1.27606        3.91364       -0.64437
C         -1.43745        3.86474        0.89443
H          0.59621        2.18703       -1.84583
H          0.12803        2.03744        2.37412
H         -2.05513        4.53365       -1.10863
H         -0.17003        0.67215       -1.36609
H          1.12835        2.80571        0.35606
H         -0.50293        0.57078        1.63213
H         -1.88924        2.32181       -2.06482
H         -2.33559        2.19655        2.05044
H         -0.31030        4.33274       -0.95835
H         -2.29633        4.46383        1.22656
H         -0.55834        4.25395        1.42624
N         -2.27683        1.83605       -0.03740
C         -3.67810        2.23598       -0.17518
H         -4.26518        1.78662        0.63716
H         -3.81602        3.32737       -0.14387
H         -4.06965        1.86242       -1.13093
O          1.63604        0.82225        0.40140
C          2.83821        1.07384       -0.14375
O          3.11063        2.12325       -0.67118
C          3.76918       -0.08111       -0.01599
C          5.09148        0.09323       -0.43926
C          3.35237       -1.31653        0.49333
C          5.99506       -0.96032       -0.34649
H          5.39159        1.06347       -0.83921
C          4.25930       -2.36948        0.57901
H          2.31784       -1.45158        0.81074
C          5.57865       -2.19148        0.16239
H          7.02751       -0.82376       -0.67442
H          3.93248       -3.33504        0.96967
H          6.28725       -3.01990        0.23155
C         -2.38488       -0.12715       -0.08110
H         -1.32599       -0.33364       -0.02799
H         -2.98036       -0.18346        0.82518
H         -2.87909       -0.16010       -1.04766
I         -2.55094       -2.83579       -0.09917
