42
-60.34460493
C         -0.51908        1.80400        1.01451
C         -1.25735        1.80255       -0.33060
C         -0.29223        1.83004       -1.51692
C          0.65898        2.77510        0.99658
C          0.86356        2.79780       -1.26544
C          0.18864        4.19078        0.60015
C          0.32891        4.20711       -0.93092
H         -1.21749        2.08908        1.80300
H         -0.82910        2.13202       -2.41746
H          0.81499        4.95111        1.06595
H         -0.17105        0.79489        1.23417
H         -1.93713        2.66280       -0.36892
H          0.08801        0.82427       -1.68900
H          1.15922        2.75838        1.96720
H          1.53016        2.79920       -2.13068
H         -0.83459        4.36379        0.92473
H          1.03091        4.97341       -1.25880
H         -0.61801        4.39419       -1.43170
N          1.59635        2.38505       -0.06329
C          2.87745        3.06820        0.05864
H          2.78031        4.15483        0.06820
H          3.36424        2.75996        0.98209
H          3.51648        2.78821       -0.77684
O         -2.05189        0.62189       -0.44775
C         -3.25271        0.64201        0.15335
O         -3.67092        1.60361        0.75401
C         -3.99141       -0.62891       -0.01181
C         -3.43603       -1.72364       -0.66993
C         -5.27630       -0.71811        0.52012
C         -4.16402       -2.89217       -0.79243
H         -2.43991       -1.65254       -1.07705
C         -5.99847       -1.88871        0.39252
H         -5.68624        0.14160        1.02830
C         -5.44267       -2.97607       -0.26354
H         -3.73339       -3.74220       -1.30018
H         -6.99409       -1.95664        0.80481
H         -6.00654       -3.89197       -0.36184
C          2.18799        0.43409       -0.01753
H          2.57127        0.62351        0.96321
H          1.20398        0.02999       -0.14207
H          2.79362        0.59996       -0.88749
I          3.13213       -2.00700        0.18748
