42
-60.34233096
C         -0.36632        1.89338        1.31713
C         -1.26522        1.80979        0.08197
C         -0.45562        1.75436       -1.22082
C          0.80119        2.85217        1.08642
C          0.72153        2.72590       -1.18250
C          0.28483        4.24235        0.65785
C          0.23117        4.15692       -0.87675
H         -0.95200        2.23633        2.17138
H         -1.11033        2.00714       -2.05650
H          0.96484        5.02630        0.99016
H          0.00149        0.89726        1.55819
H         -1.94661        2.66895        0.04471
H         -0.10068        0.73656       -1.38237
H          1.41931        2.89534        1.98574
H          1.27491        2.66435       -2.12180
H         -0.68944        4.44760        1.09495
H          0.88297        4.89690       -1.34026
H         -0.77215        4.31359       -1.26545
N          1.60120        2.39297       -0.05498
C          2.88441        3.07912       -0.13907
H          2.78290        4.16406       -0.18522
H          3.48572        2.82624        0.73213
H          3.41230        2.74543       -1.03035
O         -2.06427        0.63387        0.20855
C         -3.23548        0.62773       -0.44962
O         -3.62108        1.56260       -1.11124
C         -3.98480       -0.63335       -0.26252
C         -5.25227       -0.73742       -0.83241
C         -3.45653       -1.70466        0.45404
C         -5.98463       -1.89910       -0.68356
H         -5.64109        0.10403       -1.38576
C         -4.19441       -2.86465        0.59689
H         -2.47349       -1.62281        0.88986
C         -5.45607       -2.96299        0.03097
H         -6.96703       -1.97832       -1.12457
H         -3.78471       -3.69659        1.14982
H         -6.02801       -3.87191        0.14601
C          2.19066        0.48376        0.06122
H          2.69312        0.64952        0.98888
H          1.19051        0.10075        0.07217
H          2.76505        0.51787       -0.84432
I          3.12791       -2.01465        0.25591
