42
-60.34012709
C         -0.56757        2.08435        1.21853
C         -1.41183        2.17925       -0.05846
C         -0.53472        2.06820       -1.31179
C          0.68972        2.94641        1.09744
C          0.71893        2.93202       -1.16924
C          0.32164        4.39860        0.71880
C          0.34167        4.38896       -0.81897
H         -1.16091        2.42245        2.07052
H         -1.10582        2.39479       -2.18324
H          1.05200        5.09897        1.12301
H         -0.28756        1.04875        1.40181
H         -1.93782        3.14028       -0.07148
H         -0.24882        1.03071       -1.47417
H          1.25633        2.89035        2.02943
H          1.30956        2.86311       -2.08523
H         -0.65053        4.67330        1.12197
H          1.08279        5.08397       -1.21271
H         -0.61953        4.65874       -1.25075
N          1.51009        2.46940       -0.02246
C          2.83769        3.07628       -0.01031
H          3.39127        2.74657       -0.88737
H          2.81324        4.16688       -0.01206
H          3.37513        2.74880        0.87759
O         -2.49893        1.24934       -0.06598
C         -2.25182       -0.07081       -0.05724
O         -1.14268       -0.54695       -0.04399
C         -3.49210       -0.87814       -0.06598
C         -3.36599       -2.26603       -0.06033
C         -4.75692       -0.29552       -0.07938
C         -4.49468       -3.06254       -0.06828
H         -2.37575       -2.69565       -0.04964
C         -5.88128       -1.09922       -0.08714
H         -4.84840        0.77936       -0.08352
C         -5.75220       -2.47970       -0.08169
H         -4.39623       -4.13756       -0.06397
H         -6.86336       -0.64982       -0.09744
H         -6.63500       -3.10202       -0.08786
C          2.02168        0.49845        0.01108
H          0.97642        0.26704       -0.01533
H          2.58849        0.64308       -0.89299
H          2.47838        0.69434        0.96009
I          2.79910       -2.01796        0.10125
