42
-60.34464765
C         -0.48866        1.81891        1.04869
C         -1.21801        1.80396       -0.30168
C         -0.24808        1.82473       -1.48475
C          0.69609        2.78277        1.02685
C          0.91223        2.78725       -1.23128
C          0.22982        4.19676        0.61804
C          0.37755        4.20057       -0.91198
H         -1.19058        2.12149        1.82763
H         -0.78032        2.13102       -2.38666
H          0.85466        4.95959        1.08177
H         -0.15393        0.80936        1.28869
H         -1.89951        2.66221       -0.35065
H          0.12380        0.81579       -1.65928
H          1.18963        2.77361        2.00133
H          1.58266        2.78035       -2.09362
H         -0.79482        4.37340        0.93619
H          1.08125        4.96361       -1.24370
H         -0.56700        4.38372       -1.41869
N          1.64062        2.37741       -0.02323
C          2.91181        3.08330        0.09750
H          2.80317        4.16868        0.09283
H          3.39880        2.79430        1.02739
H          3.55939        2.80167       -0.73102
O         -2.00872        0.62002       -0.41328
C         -3.21538        0.64243        0.17501
O         -3.64425        1.60880        0.76029
C         -3.94689       -0.63367        0.01597
C         -3.37047       -1.74052       -0.60255
C         -5.24622       -0.71502        0.51280
C         -4.09245       -2.91317       -0.72146
H         -2.36288       -1.67581       -0.98153
C         -5.96238       -1.88967        0.38847
H         -5.67221        0.15402        0.99105
C         -5.38587       -2.98903       -0.22856
H         -3.64550       -3.77261       -1.19834
H         -6.96947       -1.95139        0.77301
H         -5.94510       -3.90808       -0.32418
C          2.25028        0.42474        0.03745
H          2.85166        0.66060       -0.82159
H          2.56448        0.73871        1.01351
H          1.21317        0.18930       -0.08515
I          3.04273       -2.00580        0.12456
