42
-60.34388933
C         -0.13688        1.74642        1.56946
C         -1.17560        1.81387        0.44803
C         -0.52859        1.93472       -0.93878
C          1.00907        2.72710        1.32314
C          0.66075        2.89180       -0.91546
C          0.46587        4.16061        1.14014
C          0.23047        4.27219       -0.37506
H         -0.61414        1.98035        2.52229
H         -1.27465        2.29702       -1.64806
H          1.19181        4.89585        1.48646
H          0.24322        0.72847        1.64078
H         -1.85343        2.66248        0.60327
H         -0.21328        0.94730       -1.27631
H          1.72921        2.65629        2.14132
H          1.09813        2.95211       -1.91433
H         -0.44702        4.30713        1.71246
H          0.83384        5.06561       -0.81526
H         -0.80935        4.47629       -0.61871
N          1.66141        2.41213        0.04656
C          2.93440        3.10672       -0.10204
H          2.84382        4.18893        0.00087
H          3.63184        2.74794        0.65280
H          3.34985        2.89032       -1.08460
O         -1.95671        0.62078        0.51434
C         -3.19544        0.67976       -0.00107
O         -3.65976        1.68633       -0.48238
C         -3.91068       -0.61124        0.09617
C         -3.29103       -1.76097        0.58032
C         -5.23862       -0.66292       -0.32309
C         -3.99855       -2.94666        0.64338
H         -2.26163       -1.71916        0.89904
C         -5.94001       -1.85098       -0.25483
H         -5.69814        0.23928       -0.69766
C         -5.32031       -2.99314        0.22810
H         -3.51801       -3.83904        1.01547
H         -6.96925       -1.88979       -0.57898
H         -5.86808       -3.92257        0.27943
C          2.23265        0.47724       -0.14374
H          2.64472        0.71378       -1.10689
H          2.82088        0.61759        0.74421
H          1.21868        0.14538       -0.08303
I          2.97295       -2.04925       -0.32148
