42
-60.34238276
C         -0.20434        1.75389        1.61811
C         -1.21427        1.79397        0.46932
C         -0.53106        1.88090       -0.90238
C          0.94585        2.73147        1.37790
C          0.65004        2.84848       -0.87212
C          0.40179        4.15899        1.15225
C          0.19856        4.23666       -0.37000
H         -0.70569        2.00991        2.55281
H         -1.26031        2.21772       -1.64111
H          1.11849        4.90373        1.49737
H          0.17421        0.73832        1.72630
H         -1.89382        2.64717        0.58705
H         -0.19859        0.88739       -1.20324
H          1.64731        2.67815        2.21323
H          1.11099        2.89138       -1.86113
H         -0.52344        4.31533        1.70173
H          0.80606        5.02496       -0.81367
H         -0.83701        4.42823       -0.64049
N          1.62953        2.39841        0.12341
C          2.90434        3.09283       -0.00583
H          2.80834        4.17794        0.05716
H          3.57440        2.76017        0.78461
H          3.35290        2.84338       -0.96551
O         -2.00061        0.60470        0.54385
C         -3.23468        0.66266        0.01669
O         -3.68935        1.66454       -0.48307
C         -3.95874       -0.62229        0.12753
C         -3.34889       -1.77003        0.62839
C         -5.28575       -0.66993       -0.29515
C         -4.06508       -2.94973        0.70468
H         -2.32009       -1.73139        0.94948
C         -5.99597       -1.85188       -0.21339
H         -5.73771        0.23057       -0.68278
C         -5.38597       -2.99208        0.28622
H         -3.59211       -3.84070        1.08966
H         -7.02454       -1.88747       -0.53999
H         -5.94058       -3.91679        0.34806
C          2.22629        0.46472       -0.07973
H          2.94677        0.46796        0.71330
H          1.21829        0.15795        0.10757
H          2.58350        0.63883       -1.07371
I          3.05767       -2.01857       -0.40500
