42
-60.34492397
C         -0.51258        1.86977        1.10499
C         -1.21263        1.81887       -0.25976
C         -0.21598        1.80803       -1.42015
C          0.67106        2.83409        1.08498
C          0.93366        2.78354       -1.17031
C          0.21588        4.23790        0.63188
C          0.39255        4.20316       -0.89500
H         -1.23147        2.18835        1.86170
H         -0.72887        2.08045       -2.34375
H          0.83472        5.01057        1.08730
H         -0.17801        0.86818        1.37532
H         -1.89407        2.67431       -0.34615
H          0.16729        0.79701       -1.54835
H          1.14659        2.84571        2.06804
H          1.62200        2.75826       -2.01802
H         -0.81402        4.42522        0.92597
H          1.10238        4.95844       -1.23156
H         -0.54217        4.37323       -1.42394
N          1.63421        2.40838        0.06253
C          2.91322        3.09268        0.19889
H          3.58330        2.76754       -0.59497
H          2.82301        4.17902        0.14881
H          3.36032        2.83008        1.15590
O         -1.99869        0.63095       -0.35760
C         -3.21851        0.66518        0.20256
O         -3.66159        1.64478        0.75438
C         -3.94372       -0.61606        0.05791
C         -5.25297       -0.68989        0.52927
C         -3.35176       -1.73511       -0.52300
C         -5.96326       -1.86935        0.41734
H         -5.69125        0.18863        0.97821
C         -4.06794       -2.91247       -0.62956
H         -2.33689       -1.67609       -0.88298
C         -5.37108       -2.98095       -0.16181
H         -6.97806       -1.92526        0.78198
H         -3.60883       -3.78116       -1.07718
H         -5.92580       -3.90368       -0.24771
C          2.22895        0.44816        0.11109
H          2.73785        0.64708       -0.81046
H          2.74194        0.58875        1.04369
H          1.22256        0.08381        0.12103
I          3.03906       -2.04103        0.01904
