42
-60.34303732
C         -0.14208        1.72978        1.56547
C         -1.18234        1.80156        0.44584
C         -0.53599        1.92935       -0.94058
C          0.99785        2.71970        1.32582
C          0.65044        2.89038       -0.91252
C          0.44602        4.15058        1.14756
C          0.21173        4.26676       -0.36761
H         -0.61975        1.95311        2.52064
H         -1.28278        2.29368       -1.64813
H          1.16758        4.88851        1.49731
H          0.24348        0.71319        1.62746
H         -1.85974        2.64973        0.60528
H         -0.22024        0.94403       -1.28449
H          1.71701        2.65046        2.14500
H          1.08894        2.95534       -1.91046
H         -0.46818        4.28977        1.71962
H          0.81122        5.06516       -0.80401
H         -0.82891        4.46614       -0.61170
N          1.65374        2.41602        0.04913
C          2.92160        3.12008       -0.09911
H          3.33596        2.90506       -1.08226
H          2.82509        4.20197        0.00423
H          3.62170        2.76490        0.65486
O         -1.96456        0.60896        0.50811
C         -3.20492        0.67314       -0.00270
O         -3.66710        1.68211       -0.48112
C         -3.92572       -0.61461        0.09666
C         -3.31187       -1.76609        0.58399
C         -5.25412       -0.66054       -0.32194
C         -4.02575       -2.94778        0.65105
H         -2.28213       -1.72868        0.90226
C         -5.96180       -1.84463       -0.24981
H         -5.70907        0.24301       -0.69887
C         -5.34797       -2.98852        0.23656
H         -3.54988       -3.84155        1.02586
H         -6.99139       -1.87894       -0.57340
H         -5.90073       -3.91480        0.29121
C          2.25827        0.48133       -0.11940
H          1.22726        0.20196       -0.13291
H          2.77591        0.61791       -1.04790
H          2.79692        0.61572        0.80148
I          2.99646       -2.04281       -0.32826
