42
-60.34384590
C         -0.36881        1.90218        1.31632
C         -1.27127        1.81974        0.08392
C         -0.46544        1.76279       -1.22094
C          0.79986        2.85880        1.08179
C          0.71481        2.73072       -1.18502
C          0.28589        4.25035        0.65387
C          0.22866        4.16378       -0.88027
H         -0.95157        2.24488        2.17264
H         -1.12162        2.01685       -2.05505
H          0.96952        5.03217        0.98388
H         -0.00025        0.90549        1.55396
H         -1.95198        2.67941        0.04831
H         -0.11314        0.74403       -1.38271
H          1.41979        2.90187        1.97999
H          1.26594        2.66704       -2.12559
H         -0.68665        4.45875        1.09337
H          0.88217        4.90104       -1.34578
H         -0.77490        4.32293       -1.26731
N          1.59453        2.39269       -0.05972
C          2.88128        3.07063       -0.14830
H          2.78740        4.15650       -0.19778
H          3.48328        2.81728        0.72237
H          3.40538        2.73083       -1.03957
O         -2.07071        0.64387        0.21324
C         -3.23806        0.63269       -0.45084
O         -3.62312        1.56372       -1.11817
C         -3.98465       -0.63047       -0.26412
C         -5.24298       -0.74536       -0.85175
C         -3.46173       -1.69360        0.46830
C         -5.97134       -1.90992       -0.70546
H         -5.62782        0.08995       -1.41705
C         -4.19562       -2.85639        0.60888
H         -2.48592       -1.60298        0.91845
C         -5.44799       -2.96575        0.02464
H         -6.94650       -1.99769       -1.16067
H         -3.79005       -3.68197        1.17429
H         -6.01669       -3.87696        0.13764
C          2.18964        0.44906        0.06937
H          1.18338        0.08139        0.05090
H          2.74181        0.51346       -0.84672
H          2.66462        0.67505        1.00402
I          3.13124       -2.01793        0.26108
