42
-60.34268346
C         -0.49173        1.82239        1.01506
C         -1.23475        1.82344       -0.32784
C         -0.27546        1.85776       -1.51918
C          0.68705        2.79297        0.99581
C          0.88411        2.82126       -1.26789
C          0.21564        4.20969        0.60405
C          0.35147        4.23017       -0.92752
H         -1.18760        2.10790        1.80568
H         -0.81648        2.16938       -2.41399
H          0.84336        4.96876        1.07001
H         -0.14585        0.81228        1.23410
H         -1.91699        2.68202       -0.36046
H          0.09882        0.85192       -1.70483
H          1.19064        2.77355        1.96457
H          1.54830        2.82330       -2.13482
H         -0.80666        4.38202        0.93187
H          1.05289        4.99697       -1.25535
H         -0.59691        4.41940       -1.42469
N          1.62139        2.40961       -0.06846
C          2.90273        3.09354        0.04906
H          2.80668        4.18044        0.06084
H          3.39286        2.78236        0.96955
H          3.53637        2.81290       -0.79006
O         -2.02625        0.64106       -0.44589
C         -3.22617        0.65627        0.15751
O         -3.64613        1.61580        0.76022
C         -3.96089       -0.61654       -0.00917
C         -3.39604       -1.71386       -0.65484
C         -5.25170       -0.70502        0.50843
C         -4.12088       -2.88407       -0.77988
H         -2.39496       -1.64388       -1.04974
C         -5.97074       -1.87722        0.37800
H         -5.66877        0.15656        1.00756
C         -5.40572       -2.96701       -0.26607
H         -3.68285       -3.73614       -1.27771
H         -6.97111       -1.94449        0.77873
H         -5.96722       -3.88413       -0.36658
C          2.22396        0.46327       -0.00941
H          2.59167        0.59266        0.98927
H          1.22037        0.14201       -0.17878
H          2.89648        0.51786       -0.84549
I          3.07482       -2.04335        0.18607
