42
-60.34117718
C         -0.57185        2.11590        1.24125
C         -1.39763        2.18570       -0.04904
C         -0.50167        2.05160       -1.28633
C          0.68445        2.97920        1.12294
C          0.74739        2.92193       -1.14282
C          0.32154        4.42374        0.71154
C          0.36377        4.38466       -0.82531
H         -1.17859        2.46457        2.07937
H         -1.06062        2.35650       -2.17333
H          1.04697        5.13128        1.11219
H         -0.28772        1.08505        1.44308
H         -1.92512        3.14524       -0.08796
H         -0.20968        1.01182       -1.41927
H          1.23806        2.94020        2.06347
H          1.35182        2.83787       -2.04858
H         -0.65610        4.70637        1.09556
H          1.11045        5.07260       -1.22107
H         -0.59112        4.64540       -1.27622
N          1.51969        2.48271        0.02405
C          2.85188        3.07609        0.04822
H          2.83780        4.16674        0.01334
H          3.36389        2.76971        0.95827
H          3.42268        2.71427       -0.80477
O         -2.48273        1.25331       -0.05713
C         -2.23489       -0.06561       -0.01157
O         -1.12634       -0.54064        0.04114
C         -3.47407       -0.87453       -0.03271
C         -3.34763       -2.26170        0.01178
C         -4.73831       -0.29388       -0.09554
C         -4.47538       -3.05938       -0.00620
H         -2.35792       -2.69000        0.05969
C         -5.86173       -1.09872       -0.11328
H         -4.83003        0.78043       -0.13000
C         -5.73231       -2.47847       -0.06872
H         -4.37663       -4.13383        0.02826
H         -6.84331       -0.65079       -0.16215
H         -6.61436       -3.10170       -0.08294
C          2.02758        0.49838        0.06208
H          2.49823        0.63711       -0.89106
H          2.56712        0.60766        0.98842
H          1.00314        0.20575        0.07227
I          2.76882       -2.02820        0.04346
