42
-60.34356397
C         -0.13246        1.76774        1.59435
C         -1.16196        1.82245        0.46405
C         -0.50259        1.92936       -0.91777
C          1.01231        2.74985        1.34919
C          0.68193        2.89214       -0.89475
C          0.46854        4.18072        1.14742
C          0.24475        4.27672       -0.37076
H         -0.61822        2.00610        2.54174
H         -1.24380        2.27762       -1.63899
H          1.19181        4.91987        1.49109
H          0.25262        0.75253        1.67452
H         -1.84224        2.67165        0.60487
H         -0.17601        0.94000       -1.23740
H          1.72679        2.68730        2.17287
H          1.12830        2.94354       -1.89006
H         -0.44867        4.33248        1.71143
H          0.85085        5.06662       -0.81362
H         -0.79337        4.47684       -0.62475
N          1.67295        2.42616        0.08104
C          2.95390        3.10328       -0.06514
H          3.37673        2.86542       -1.03944
H          2.87338        4.18845        0.01910
H          3.63801        2.74854        0.70352
O         -1.94231        0.62897        0.53581
C         -3.17702        0.68184        0.01030
O         -3.63882        1.68345       -0.48364
C         -3.89206       -0.60889        0.11352
C         -3.27722       -1.75285        0.61696
C         -5.21515       -0.66617       -0.32008
C         -3.98460       -2.93837        0.68481
H         -2.25153       -1.70681        0.94683
C         -5.91650       -1.85396       -0.24701
H         -5.67094        0.23163       -0.70949
C         -5.30154       -2.99037        0.25514
H         -3.50772       -3.82638        1.07179
H         -6.94198       -1.89703       -0.58235
H         -5.84922       -3.91963        0.31029
C          2.24096        0.47227       -0.10404
H          1.25276        0.07546       -0.02009
H          2.67549        0.62875       -1.06870
H          2.88524        0.50953        0.75139
I          2.94073       -2.05781       -0.36413
