42
-60.34440435
C         -0.18910        1.74220        1.61127
C         -1.20731        1.79056        0.47043
C         -0.53322        1.88773       -0.90491
C          0.95601        2.72577        1.37148
C          0.64688        2.85647       -0.87505
C          0.40659        4.15320        1.15873
C          0.19583        4.24081       -0.36183
H         -0.68435        1.98667        2.55226
H         -1.26749        2.22875       -1.63668
H          1.12270        4.89768        1.50571
H          0.19452        0.72717        1.70446
H         -1.88593        2.64296        0.59879
H         -0.20134        0.89671       -1.21453
H          1.66215        2.66967        2.20277
H          1.10155        2.90663       -1.86669
H         -0.51637        4.30274        1.71388
H          0.80021        5.03279       -0.80325
H         -0.84127        4.43269       -0.62616
N          1.63307        2.39985        0.11133
C          2.90473        3.09942       -0.02145
H          2.80586        4.18343        0.05411
H          3.58349        2.76130        0.75931
H          3.34633        2.86280       -0.98770
O         -1.99355        0.60097        0.54260
C         -3.22649        0.65985        0.01333
O         -3.67901        1.66167       -0.48863
C         -3.95293       -0.62385        0.12432
C         -3.35333       -1.76626        0.64912
C         -5.27208       -0.67536       -0.32186
C         -4.07184       -2.94455        0.72549
H         -2.33076       -1.72435        0.98914
C         -5.98452       -1.85601       -0.24050
H         -5.71612        0.22116       -0.72744
C         -5.38473       -2.99090        0.28295
H         -3.60698       -3.83137        1.12952
H         -7.00686       -1.89467       -0.58578
H         -5.94112       -3.91454        0.34486
C          2.23334        0.45958       -0.08933
H          2.59963        0.69028       -1.07033
H          2.89636        0.52599        0.75120
H          1.22483        0.13386        0.05463
I          3.04861       -2.01771       -0.39753
