42
-60.34344572
C         -0.15301        1.74552        1.60027
C         -1.18112        1.80159        0.46856
C         -0.51978        1.90774       -0.91253
C          0.99235        2.72787        1.35703
C          0.66532        2.87000       -0.88725
C          0.44680        4.15782        1.15463
C          0.22465        4.25367       -0.36385
H         -0.63990        1.98539        2.54676
H         -1.25945        2.25860       -1.63412
H          1.16802        4.89827        1.49971
H          0.22891        0.72912        1.68309
H         -1.85941        2.65254        0.60835
H         -0.19680        0.91774       -1.23456
H          1.70455        2.66685        2.18290
H          1.11299        2.92185       -1.88188
H         -0.47142        4.30787        1.71745
H          0.82863        5.04545       -0.80611
H         -0.81373        4.45119       -0.61881
N          1.65817        2.40619        0.08983
C          2.93142        3.10066       -0.05459
H          3.61897        2.75729        0.71616
H          3.35928        2.86474       -1.02707
H          2.83728        4.18452        0.02626
O         -1.96476        0.61055        0.54014
C         -3.19782        0.66680        0.01049
O         -3.65308        1.66881       -0.48865
C         -3.91933       -0.61983        0.11706
C         -3.31227       -1.76395        0.62959
C         -5.24092       -0.67293       -0.32170
C         -4.02599       -2.94541        0.70148
H         -2.28769       -1.72109        0.96332
C         -5.94853       -1.85674       -0.24468
H         -5.69061        0.22486       -0.71817
C         -5.34143       -2.99325        0.26673
H         -3.55528       -3.83351        1.09573
H         -6.97279       -1.89664       -0.58409
H         -5.89407       -3.91937        0.32512
C          2.24229        0.48161       -0.08489
H          1.23628        0.13718       -0.01982
H          2.68627        0.61930       -1.05157
H          2.82701        0.58096        0.81201
I          2.98713       -2.03097       -0.37818
