42
-60.34482459
C         -0.44153        1.84165        1.04072
C         -1.18350        1.84073       -0.30290
C         -0.22515        1.87682       -1.49517
C          0.74139        2.80713        1.02020
C          0.93841        2.83503       -1.24219
C          0.27465        4.22573        0.62914
C          0.41077        4.24601       -0.90213
H         -1.13703        2.13218        1.82991
H         -0.76626        2.19398       -2.38800
H          0.90470        4.98258        1.09564
H         -0.09991        0.83085        1.26342
H         -1.86856        2.69696       -0.33621
H          0.14490        0.87032       -1.68559
H          1.24485        2.78618        1.98913
H          1.60245        2.83534       -2.10936
H         -0.74721        4.40109        0.95669
H          1.11497        5.01029       -1.22996
H         -0.53693        4.43842       -1.39939
N          1.67385        2.41677       -0.04358
C          2.95637        3.09871        0.07430
H          2.86345        4.18596        0.08633
H          3.44611        2.78726        0.99512
H          3.59025        2.81785       -0.76478
O         -1.97013        0.65487       -0.41898
C         -3.17852        0.67041        0.16665
O         -3.61514        1.63531        0.74851
C         -3.89987       -0.61135        0.00872
C         -3.30564       -1.72144       -0.58682
C         -5.20665       -0.69603        0.48508
C         -4.01721       -2.90065       -0.70322
H         -2.29210       -1.65467       -0.94910
C         -5.91250       -1.87713        0.36288
H         -5.64656        0.17542        0.94604
C         -5.31811       -2.97976       -0.23097
H         -3.55603       -3.76263       -1.16152
H         -6.92546       -1.94141        0.73125
H         -5.86921       -3.90392       -0.32444
C          2.26428        0.45669        0.00744
H          1.25105        0.16125       -0.15435
H          2.91376        0.57623       -0.83935
H          2.64313        0.63126        0.99757
I          2.95665       -2.06061        0.14062
