42
tsa_conformer4.log	Energy: -706580.4054130
C          0.32916        1.64076        1.45584
C         -0.63533        1.82420        0.28324
C          0.05144        1.72788       -1.08572
C          1.65291        2.36433        1.20520
C          1.40587        2.43594       -1.08419
C          1.43666        3.86484        0.89448
C          1.27517        3.91375       -0.64431
H         -0.12841        2.03712        2.37415
H         -0.59672        2.18673       -1.84580
H          2.29546        4.46408        1.22657
H          0.50285        0.57065        1.63201
H         -1.12883        2.80542        0.35612
H          0.16987        0.67202       -1.36604
H          2.33516        2.19679        2.05041
H          1.88868        2.32211       -2.06484
H          0.55751        4.25388        1.42635
H          2.05406        4.53398       -1.10860
H          0.30929        4.33263       -0.95823
N          2.27643        1.83637       -0.03744
C          3.67761        2.23662       -0.17526
H          3.81526        3.32805       -0.14411
H          4.26479        1.78751        0.63714
H          4.06926        1.86302       -1.13096
O         -1.63633        0.82190        0.40144
C         -2.83852        1.07339       -0.14370
O         -3.11104        2.12278       -0.67113
C         -3.76939       -0.08164       -0.01597
C         -3.35250       -1.31703        0.49334
C         -5.09170        0.09259       -0.43928
C         -4.25934       -2.37006        0.57898
H         -2.31797       -1.45199        0.81079
C         -5.99519       -0.96104       -0.34657
H         -5.39188        1.06282       -0.83923
C         -5.57869       -2.19217        0.16231
H         -3.93245       -3.33560        0.96963
H         -7.02764       -0.82457       -0.67452
H         -6.28721       -3.02066        0.23143
C          2.38493       -0.12680       -0.08113
H          1.32610       -0.33354       -0.02796
H          2.87914       -0.15969       -1.04770
H          2.98046       -0.18292        0.82513
I          2.55186       -2.83534       -0.09916
