42
-60.34545519
C         -0.52882        1.82162        1.07537
C         -1.25458        1.79896       -0.27638
C         -0.27892        1.80964       -1.45432
C          0.65076        2.79096        1.05286
C          0.87427        2.78164       -1.20684
C          0.18415        4.20137        0.63317
C          0.33585        4.19520       -0.89680
H         -1.23411        2.12040        1.85261
H         -0.80813        2.09813       -2.36376
H          0.80817        4.96753        1.09252
H         -0.18456        0.81574        1.31563
H         -1.93494        2.65768       -0.33341
H          0.10257        0.80140       -1.60790
H          1.14301        2.78692        2.02770
H          1.54791        2.77214       -2.06664
H         -0.84126        4.38006        0.94769
H          1.03944        4.95738       -1.23083
H         -0.60750        4.37382       -1.40734
N          1.59681        2.38532        0.00667
C          2.87638        3.07093        0.13129
H          2.78137        4.15773        0.10999
H          3.34653        2.78694        1.07096
H          3.52920        2.76755       -0.68517
O         -2.04655        0.61561       -0.38414
C         -3.25416        0.64234        0.20245
O         -3.67964        1.61027        0.78766
C         -3.99084       -0.63042        0.04138
C         -5.28568       -0.71155        0.54992
C         -3.42448       -1.73393       -0.59228
C         -6.00705       -1.88270        0.42270
H         -5.70414        0.15493        1.03933
C         -4.15164       -2.90303       -0.71421
H         -2.42071       -1.66912       -0.98126
C         -5.44042       -2.97873       -0.20924
H         -7.01063       -1.94421        0.81630
H         -3.71256       -3.75973       -1.20318
H         -6.00383       -3.89493       -0.30747
C          2.19990        0.42779        0.04462
H          2.72449        0.61894       -0.87032
H          2.65335        0.59416        1.00353
H          1.20111        0.04891       -0.00810
I          3.12948       -2.00477        0.07582
