42
-60.34415128
C         -0.37403        1.90216        1.32233
C         -1.26774        1.81112        0.08411
C         -0.45289        1.74495       -1.21460
C          0.79968        2.85289        1.08742
C          0.72544        2.71583       -1.17764
C          0.28785        4.24345        0.65221
C          0.23527        4.14948       -0.88148
H         -0.96159        2.25613        2.17085
H         -1.10391        1.99118       -2.05508
H          0.97131        5.02600        0.98077
H         -0.01340        0.90600        1.57512
H         -1.94762        2.67085        0.03810
H         -0.09793        0.72518       -1.36457
H          1.41545        2.89828        1.98835
H          1.27999        2.65067       -2.11629
H         -0.68584        4.45474        1.08782
H          0.88881        4.88561       -1.34877
H         -0.76740        4.30466       -1.27247
N          1.60046        2.38060       -0.04791
C          2.88426        3.06618       -0.12928
H          3.47731        2.82182        0.74996
H          3.42068        2.72205       -1.01155
H          2.78707        4.15135       -0.18873
O         -2.06883        0.63640        0.21600
C         -3.23314        0.62244       -0.45291
O         -3.61555        1.55004       -1.12645
C         -3.98110       -0.63966       -0.26300
C         -5.23801       -0.75610       -0.85327
C         -3.46079       -1.70012        0.47503
C         -5.96764       -1.91948       -0.70389
H         -5.62084        0.07715       -1.42296
C         -4.19590       -2.86177        0.61869
H         -2.48591       -1.60837        0.92696
C         -5.44694       -2.97263        0.03192
H         -6.94176       -2.00842       -1.16113
H         -3.79235       -3.68531        1.18853
H         -6.01663       -3.88292        0.14736
C          2.21541        0.43007        0.04660
H          2.73193        0.62010        0.96705
H          1.19510        0.13866        0.13899
H          2.63887        0.56590       -0.93647
I          3.12178       -1.99891        0.25587
