42
-60.34504205
C         -0.18515        1.70402        1.56986
C         -1.22404        1.77932        0.44956
C         -0.57457        1.90531       -0.93517
C          0.95570        2.69297        1.33234
C          0.60947        2.86904       -0.90541
C          0.40548        4.12493        1.15719
C          0.17171        4.24437       -0.35777
H         -0.66310        1.92453        2.52554
H         -1.32056        2.26421       -1.64620
H          1.12778        4.86136        1.50863
H          0.20075        0.68747        1.62826
H         -1.89887        2.62964        0.60820
H         -0.25132        0.92044       -1.27246
H          1.67500        2.62095        2.15118
H          1.04803        2.93664       -1.90326
H         -0.50865        4.26380        1.72948
H          0.77275        5.04271       -0.79224
H         -0.86851        4.44552       -0.60222
N          1.61037        2.38905        0.05517
C          2.88203        3.08604       -0.08881
H          2.79054        4.16765        0.02179
H          3.58000        2.72232        0.66311
H          3.29661        2.87635       -1.07308
O         -2.01044        0.58921        0.51171
C         -3.24815        0.65594       -0.00502
O         -3.70350        1.66367       -0.49240
C         -3.97530       -0.62810        0.09846
C         -3.37777       -1.77249        0.62138
C         -5.29338       -0.67744       -0.35105
C         -4.09720       -2.95053        0.69256
H         -2.35630       -1.73197        0.96490
C         -6.00667       -1.85795       -0.27518
H         -5.73603        0.22072       -0.75453
C         -5.40895       -2.99478        0.24641
H         -3.63404       -3.83872        1.09553
H         -7.02819       -1.89493       -0.62305
H         -5.96605       -3.91826        0.30418
C          2.20587        0.44773       -0.14198
H          1.19729        0.09174       -0.10239
H          2.65493        0.64913       -1.09514
H          2.76892        0.57513        0.76123
I          3.09109       -2.00119       -0.33517
